# CIF file generated by openbabel 2.4.90, see http://openbabel.sf.net
data_I
_chemical_name_common ''
_cell_length_a 15.75
_cell_length_b 15.748
_cell_length_c 16.414
_cell_angle_alpha 89.999
_cell_angle_beta 89.999
_cell_angle_gamma 119.966
_space_group_name_H-M_alt 'P 1'
_space_group_name_Hall 'P 1'
loop_
    _symmetry_equiv_pos_as_xyz
    x,y,z
loop_
    _atom_site_label
    _atom_site_type_symbol
    _atom_site_fract_x
    _atom_site_fract_y
    _atom_site_fract_z
    _atom_site_occupancy
    Zn0     Zn   0.66661   0.33325   0.16969   1.000
    Ag1     Ag   0.84656   0.26498   0.26760   1.000
    Ag2     Ag   0.41839   0.15338   0.26762   1.000
    Ag3     Ag   0.73493   0.58158   0.26759   1.000
    Ag4     Ag   0.15334   0.73501   0.73200   1.000
    Ag5     Ag   0.58157   0.84659   0.73236   1.000
    Ag6     Ag   0.26502   0.41842   0.73230   1.000
    H7      H    0.15659   0.63081   0.03520   1.000
    H8      H    0.95294   0.61431   0.85241   1.000
    H9      H    0.05251   0.64529   0.14348   1.000
    H10     H    0.84957   0.62794   0.95819   1.000
    H11     H    0.22211   0.51671   0.60856   1.000
    H12     H    0.94068   0.45445   0.70156   1.000
    H13     H    0.14263   0.42505   0.48219   1.000
    H14     H    0.86183   0.36717   0.57556   1.000
    H15     H    0.47430   0.84344   0.03520   1.000
    H16     H    0.66126   0.04698   0.85240   1.000
    H17     H    0.59278   0.94748   0.14348   1.000
    H18     H    0.77819   0.15032   0.95816   1.000
    H19     H    0.29460   0.77785   0.60863   1.000
    H20     H    0.51365   0.05924   0.70154   1.000
    H21     H    0.28242   0.85735   0.48222   1.000
    H22     H    0.50522   0.13810   0.57550   1.000
    H23     H    0.36915   0.52576   0.03524   1.000
    H24     H    0.38570   0.33863   0.85241   1.000
    H25     H    0.35466   0.40720   0.14348   1.000
    H26     H    0.37206   0.22162   0.95819   1.000
    H27     H    0.48322   0.70542   0.60861   1.000
    H28     H    0.54554   0.48618   0.70153   1.000
    Zn29    Zn   0.33331   0.66670   0.83031   1.000
    H30     H    0.57493   0.71760   0.48224   1.000
    H31     H    0.63286   0.49462   0.57553   1.000
    H32     H    0.84336   0.36915   0.96476   1.000
    H33     H    0.04706   0.38577   0.14758   1.000
    H34     H    0.94743   0.35465   0.85652   1.000
    H35     H    0.15043   0.37212   0.04181   1.000
    H36     H    0.77784   0.48325   0.39144   1.000
    H37     H    0.05930   0.54560   0.29844   1.000
    H38     H    0.85731   0.57490   0.51782   1.000
    H39     H    0.13813   0.63288   0.42445   1.000
    H40     H    0.52567   0.15651   0.96474   1.000
    H41     H    0.33869   0.95297   0.14700   1.000
    H42     H    0.40718   0.05248   0.85652   1.000
    H43     H    0.22175   0.84965   0.04180   1.000
    H44     H    0.70535   0.22212   0.39139   1.000
    H45     H    0.48626   0.94075   0.29848   1.000
    H46     H    0.71754   0.14261   0.51778   1.000
    H47     H    0.49470   0.86187   0.42450   1.000
    H48     H    0.63080   0.47421   0.96477   1.000
    H49     H    0.61431   0.66136   0.14762   1.000
    H50     H    0.64525   0.59276   0.85650   1.000
    H51     H    0.62793   0.77837   0.04180   1.000
    H52     H    0.51673   0.29452   0.39138   1.000
    H53     H    0.45442   0.51377   0.29848   1.000
    H54     H    0.42503   0.28234   0.51770   1.000
    H55     H    0.36711   0.50535   0.42449   1.000
    C56     C    0.14084   0.54376   0.74024   1.000
    C57     C    0.09372   0.57567   0.79698   1.000
    C58     C    0.12854   0.61132   0.87746   1.000
    C59     C    0.06179   0.61946   0.93698   1.000
    C60     C    0.08896   0.63007   0.01987   1.000
    C61     C    0.97468   0.61925   0.91602   1.000
    C62     C    0.03153   0.63836   0.07954   1.000
    C63     C    0.91653   0.62803   0.97491   1.000
    C64     C    0.94425   0.63775   0.05785   1.000
    C65     C    0.88736   0.64794   0.11907   1.000
    C66     C    0.08829   0.49210   0.66518   1.000
    C67     C    0.14310   0.48251   0.60106   1.000
    C68     C    0.98607   0.44949   0.65380   1.000
    C69     C    0.09893   0.43198   0.53041   1.000
    C70     C    0.94069   0.39929   0.58321   1.000
    C71     C    0.99630   0.38898   0.52013   1.000
    C72     C    0.94969   0.33751   0.44862   1.000
    C73     C    0.40290   0.85915   0.74028   1.000
    C74     C    0.48190   0.90624   0.79699   1.000
    C75     C    0.48276   0.87145   0.87749   1.000
    C76     C    0.55765   0.93819   0.93698   1.000
    C77     C    0.54113   0.91104   0.01987   1.000
    C78     C    0.64446   0.02524   0.91601   1.000
    C79     C    0.60682   0.96846   0.07953   1.000
    C80     C    0.71137   0.08338   0.97489   1.000
    C81     C    0.69340   0.05568   0.05783   1.000
    C82     C    0.76044   0.11258   0.11905   1.000
    C83     C    0.40378   0.91169   0.66519   1.000
    C84     C    0.33940   0.85686   0.60110   1.000
    C85     C    0.46332   0.01386   0.65383   1.000
    C86     C    0.33304   0.90103   0.53043   1.000
    C87     C    0.45850   0.05925   0.58318   1.000
    C88     C    0.39261   0.00363   0.52012   1.000
    C89     C    0.38774   0.05024   0.44860   1.000
    C90     C    0.45617   0.59703   0.74025   1.000
    C91     C    0.42433   0.51804   0.79699   1.000
    C92     C    0.38868   0.51721   0.87747   1.000
    C93     C    0.38055   0.44232   0.93690   1.000
    C94     C    0.36991   0.45888   0.01987   1.000
    C95     C    0.38075   0.35543   0.91602   1.000
    C96     C    0.36162   0.39316   0.07954   1.000
    C97     C    0.37198   0.28850   0.97491   1.000
    C98     C    0.36222   0.30649   0.05785   1.000
    C99     C    0.35204   0.23942   0.11907   1.000
    C100    C    0.50785   0.59615   0.66518   1.000
    C101    C    0.51741   0.66057   0.60109   1.000
    C102    C    0.55049   0.53654   0.65383   1.000
    C103    C    0.56798   0.66694   0.53044   1.000
    C104    C    0.60072   0.54137   0.58319   1.000
    C105    C    0.61100   0.60730   0.52014   1.000
    C106    C    0.66249   0.61218   0.44862   1.000
    C107    C    0.85913   0.45623   0.25976   1.000
    C108    C    0.90626   0.42436   0.20301   1.000
    C109    C    0.87144   0.38870   0.12254   1.000
    C110    C    0.93819   0.38057   0.06301   1.000
    C111    C    0.91099   0.36991   0.98013   1.000
    C112    C    0.02530   0.38079   0.08390   1.000
    C113    C    0.96844   0.36163   0.92046   1.000
    C114    C    0.08347   0.37203   0.02509   1.000
    C115    C    0.05571   0.36223   0.94215   1.000
    C116    C    0.11262   0.35206   0.88093   1.000
    C117    C    0.91169   0.50792   0.33483   1.000
    C118    C    0.85685   0.51744   0.39895   1.000
    C119    C    0.01389   0.55053   0.34616   1.000
    C120    C    0.90101   0.56798   0.46960   1.000
    C121    C    0.05927   0.60074   0.41680   1.000
    C122    C    0.00364   0.61101   0.47988   1.000
    C123    C    0.05024   0.66249   0.55140   1.000
    C124    C    0.59703   0.14083   0.25974   1.000
    C125    C    0.51806   0.09372   0.20300   1.000
    C126    C    0.51719   0.12850   0.12251   1.000
    C127    C    0.44230   0.06177   0.06302   1.000
    C128    C    0.45884   0.08891   0.98012   1.000
    C129    C    0.35549   0.97471   0.08398   1.000
    C130    C    0.39314   0.03151   0.92046   1.000
    C131    C    0.28858   0.91659   0.02510   1.000
    C132    C    0.30655   0.94428   0.94216   1.000
    C133    C    0.23948   0.88741   0.88095   1.000
    C134    C    0.59615   0.08830   0.33482   1.000
    C135    C    0.66054   0.14311   0.39891   1.000
    C136    C    0.53659   0.98612   0.34618   1.000
    C137    C    0.66691   0.09893   0.46950   1.000
    C138    C    0.54141   0.94073   0.41683   1.000
    C139    C    0.60733   0.99633   0.47988   1.000
    C140    C    0.61220   0.94971   0.55139   1.000
    C141    C    0.54376   0.40291   0.25975   1.000
    C142    C    0.57566   0.48193   0.20304   1.000
    C143    C    0.61132   0.48276   0.12255   1.000
    C144    C    0.61947   0.55767   0.06300   1.000
    C145    C    0.63003   0.54108   0.98015   1.000
    C146    C    0.61922   0.64454   0.08400   1.000
    C147    C    0.63833   0.60681   0.92048   1.000
    C148    C    0.62801   0.71149   0.02512   1.000
    C149    C    0.63771   0.69346   0.94218   1.000
    C150    C    0.64791   0.76055   0.88095   1.000
    C151    C    0.49208   0.40379   0.33481   1.000
    C152    C    0.48252   0.33937   0.39890   1.000
    C153    C    0.44947   0.46341   0.34618   1.000
    C154    C    0.43198   0.33300   0.46956   1.000
    C155    C    0.39926   0.45860   0.41680   1.000
    C156    C    0.38895   0.39264   0.47987   1.000
    C157    C    0.33747   0.38776   0.55138   1.000
    N158    N    0.90903   0.29224   0.39025   1.000
    N159    N    0.84363   0.65996   0.17145   1.000
    N160    N    0.38308   0.09090   0.39022   1.000
    N161    N    0.81612   0.15633   0.17144   1.000
    N162    N    0.70781   0.61685   0.39025   1.000
    N163    N    0.34003   0.18370   0.17147   1.000
    N164    N    0.09088   0.70778   0.60976   1.000
    N165    N    0.15638   0.34012   0.82854   1.000
    N166    N    0.61682   0.90900   0.60975   1.000
    N167    N    0.18376   0.84370   0.82857   1.000
    N168    N    0.29221   0.38313   0.60978   1.000
    N169    N    0.65988   0.81624   0.82850   1.000
    O170    O    0.22812   0.55708   0.74986   1.000
    O171    O    0.21403   0.63518   0.90330   1.000
    O172    O    0.32895   0.77191   0.74991   1.000
    O173    O    0.42116   0.78597   0.90330   1.000
    O174    O    0.44285   0.67101   0.74989   1.000
    O175    O    0.36479   0.57886   0.90330   1.000
    O176    O    0.77186   0.44291   0.25014   1.000
    O177    O    0.78594   0.36482   0.09672   1.000
    O178    O    0.67097   0.22810   0.25010   1.000
    O179    O    0.57879   0.21398   0.09665   1.000
    O180    O    0.55707   0.32892   0.25010   1.000
    O181    O    0.63514   0.42109   0.09668   1.000
loop_
    _geom_bond_atom_site_label_1
    _geom_bond_atom_site_label_2
    _geom_bond_distance
    _geom_bond_site_symmetry_2
    _ccdc_geom_bond_type
    C94    H23       1.08884      .   S
    C94    C96       1.38293      .   S
    C94    C93       1.41225  1_554   S
    C77    H15       1.08863      .   S
    C77    C79       1.38294      .   S
    C77    C76       1.41083  1_554   S
    C60    H7        1.08870      .   S
    C60    C62       1.38294      .   S
    C60    C59       1.41095  1_554   S
    C114   H35       1.08903      .   S
    C114   C112      1.38438      .   S
    C114   C115      1.41456  1_554   S
    C131   H43       1.08892      .   S
    C131   C129      1.38527      .   S
    C131   C132      1.41434  1_554   S
    C148   H51       1.08887      .   S
    C148   C146      1.38525      .   S
    C148   C149      1.41441  1_554   S
    C81    C79       1.41491  1_545   S
    C81    C82       1.40803      .   S
    C81    C80       1.41435  1_554   S
    C64    C62       1.41539  1_655   S
    C64    C65       1.40793      .   S
    C64    C63       1.41446  1_554   S
    C98    C96       1.41511      .   S
    C98    C99       1.40784      .   S
    C98    C97       1.41450  1_554   S
    C144   C146      1.41260      .   S
    C144   C143      1.48737      .   S
    C144   C145      1.41024  1_554   S
    C110   C112      1.41252  1_655   S
    C110   C109      1.48688      .   S
    C110   C111      1.41086  1_554   S
    C127   C129      1.41237  1_545   S
    C127   C126      1.48688      .   S
    C127   C128      1.41096  1_554   S
    C79    H17       1.08942      .   S
    C62    H9        1.08930      .   S
    C96    H25       1.08932      .   S
    C112   H33       1.09055      .   S
    C129   H41       1.08014      .   S
    C146   H49       1.08953      .   S
    O179   C126      1.27621      .   S
    O179   Zn0       2.06960      .   S
    O181   C143      1.27617      .   S
    O181   Zn0       2.06886      .   S
    O177   C109      1.27619      .   S
    O177   Zn0       2.06886      .   S
    C82    N161      1.17455      .   S
    C99    N163      1.17456      .   S
    C65    N159      1.17451      .   S
    C126   C125      1.43293      .   S
    C109   C108      1.43292      .   S
    C143   C142      1.43306      .   S
    Zn0    O180      2.14605      .   S
    Zn0    O178      2.14533      .   S
    Zn0    O176      2.14806      .   S
    N161   Ag1       2.19756      .   S
    N159   Ag3       2.19849      .   S
    N163   Ag2       2.19793      .   S
    C125   C124      1.42941      .   S
    C125   Ag2       2.43829      .   S
    C108   C107      1.42924      .   S
    C108   Ag1       2.43934      .   S
    C142   C141      1.42925      .   S
    C142   Ag3       2.43840      .   S
    O180   C141      1.29257      .   S
    O178   C124      1.29269      .   S
    O176   C107      1.29245      .   S
    C124   C134      1.48043      .   S
    C141   C151      1.48049      .   S
    C107   C117      1.48087      .   S
    Ag3    N162      2.18669      .   S
    Ag1    N158      2.18708      .   S
    Ag2    N160      2.18639      .   S
    H37    C119      1.08922      .   S
    H53    C153      1.08916      .   S
    H45    C136      1.08918      .   S
    C151   C153      1.41294      .   S
    C151   C152      1.41626      .   S
    C134   C136      1.41281  1_545   S
    C134   C135      1.41625      .   S
    C117   C119      1.41319  1_655   S
    C117   C118      1.41613      .   S
    C119   C121      1.38417      .   S
    C136   C138      1.38410      .   S
    C153   C155      1.38382      .   S
    N160   C89       1.17492      .   S
    N162   C106      1.17488      .   S
    N158   C72       1.17486      .   S
    H52    C152      1.08829      .   S
    H44    C135      1.08829      .   S
    H36    C118      1.08827      .   S
    C152   C154      1.38175      .   S
    C135   C137      1.38065      .   S
    C118   C120      1.38168      .   S
    C155   H55       1.08933      .   S
    C155   C156      1.41724      .   S
    C121   H39       1.08929      .   S
    C121   C122      1.41684      .   S
    C138   H47       1.08929      .   S
    C138   C139      1.41693      .   S
    C89    C88       1.40679      .   S
    C72    C71       1.40685      .   S
    C106   C105      1.40692      .   S
    C137   C139      1.41618  1_545   S
    C137   H46       1.09043      .   S
    C154   C156      1.41619      .   S
    C154   H54       1.08885      .   S
    C120   C122      1.41642  1_655   S
    C120   H38       1.08950      .   S
    C156   C157      1.40672      .   S
    C122   C123      1.40699      .   S
    C139   C140      1.40672      .   S
    H13    C69       1.08953      .   S
    H21    C86       1.08954      .   S
    H30    C103      1.08950      .   S
    C88    C86       1.41599  1_545   S
    C88    C87       1.41689      .   S
    C71    C69       1.41648  1_655   S
    C71    C70       1.41697      .   S
    C105   C103      1.41616      .   S
    C105   C104      1.41685      .   S
    C69    C67       1.38164      .   S
    C86    C84       1.38169      .   S
    C103   C101      1.38172      .   S
    C157   N168      1.17491      .   S
    C140   N166      1.17490      .   S
    C123   N164      1.17477      .   S
    H22    C87       1.08929      .   S
    H31    C104      1.08928      .   S
    H14    C70       1.08931      .   S
    C87    C85       1.38406      .   S
    C104   C102      1.38421      .   S
    C70    C68       1.38347      .   S
    C67    H11       1.08829      .   S
    C67    C66       1.41631      .   S
    C101   H27       1.08829      .   S
    C101   C100      1.41623      .   S
    C84    H19       1.08829      .   S
    C84    C83       1.41621      .   S
    N166   Ag5       2.18618      .   S
    N164   Ag4       2.18089      .   S
    N168   Ag6       2.18499      .   S
    C68    C66       1.41341  1_655   S
    C68    H12       1.08977      .   S
    C85    C83       1.41271  1_545   S
    C85    H20       1.08926      .   S
    C102   C100      1.41294      .   S
    C102   H28       1.08916      .   S
    C100   C90       1.48059      .   S
    C66    C56       1.48062      .   S
    C83    C73       1.48067      .   S
    Ag4    C57       2.44179      .   S
    Ag4    N167      2.20290      .   S
    Ag6    C91       2.43963      .   S
    Ag6    N165      2.19904      .   S
    Ag5    C74       2.43835      .   S
    Ag5    N169      2.19748      .   S
    C56    O170      1.29260      .   S
    C56    C57       1.42927      .   S
    C90    O174      1.29256      .   S
    C90    C91       1.42936      .   S
    C73    O172      1.29249      .   S
    C73    C74       1.42923      .   S
    O170   Zn29      2.14748      .   S
    O174   Zn29      2.14625      .   S
    O172   Zn29      2.14590      .   S
    C57    C58       1.43301      .   S
    C74    C75       1.43311      .   S
    C91    C92       1.43289      .   S
    N169   C150      1.17499      .   S
    N165   C116      1.17446      .   S
    N167   C133      1.17460      .   S
    Zn29   O175      2.06874      .   S
    Zn29   O173      2.06927      .   S
    Zn29   O171      2.06874      .   S
    H16    C78       1.08943      .   S
    H24    C95       1.08943      .   S
    H8     C61       1.08943      .   S
    H50    C147      1.08988      .   S
    H34    C113      1.08935      .   S
    H42    C130      1.08927      .   S
    C58    O171      1.27618      .   S
    C58    C59       1.48685      .   S
    C92    O175      1.27621      .   S
    C92    C93       1.48589      .   S
    C75    O173      1.27590      .   S
    C75    C76       1.48696      .   S
    C116   C115      1.40791      .   S
    C150   C149      1.40800      .   S
    C133   C132      1.40797      .   S
    C78    C76       1.41236  1_545   S
    C78    C80       1.38529      .   S
    C95    C93       1.41218      .   S
    C95    C97       1.38528      .   S
    C61    C59       1.41277  1_655   S
    C61    C63       1.38528      .   S
    C130   C132      1.41497  1_545   S
    C130   C128      1.38292      .   S
    C113   C115      1.41536  1_655   S
    C113   C111      1.38297      .   S
    C147   C149      1.41504      .   S
    C147   C145      1.38301      .   S
    H18    C80       1.08906      .   S
    H10    C63       1.08905      .   S
    H26    C97       1.08904      .   S
    H40    C128      1.08883      .   S
    H32    C111      1.08885      .   S
    H48    C145      1.08885      .   S
    O170   Ag6       2.54103      .   S
    O172   Ag4       2.54339      .   S
    O174   Ag5       2.54288      .   S
    O176   Ag3       2.54127      .   S
    O178   Ag1       2.54231      .   S
    O180   Ag2       2.54235      .   S
