# CIF file generated by openbabel 2.4.90, see http://openbabel.sf.net
data_I
_chemical_name_common ''
_cell_length_a 15.75
_cell_length_b 15.748
_cell_length_c 16.414
_cell_angle_alpha 89.999
_cell_angle_beta 89.999
_cell_angle_gamma 119.966
_space_group_name_H-M_alt 'P 1'
_space_group_name_Hall 'P 1'
loop_
    _symmetry_equiv_pos_as_xyz
    x,y,z
loop_
    _atom_site_label
    _atom_site_type_symbol
    _atom_site_fract_x
    _atom_site_fract_y
    _atom_site_fract_z
    _atom_site_occupancy
    Zn0     Zn   0.66661   0.33325   0.16969   1.000
    Ag1     Ag   0.84656   0.26498   0.26760   1.000
    Ag2     Ag   0.41839   0.15338   0.26762   1.000
    Ag3     Ag   0.73493   0.58158   0.26759   1.000
    Ag4     Ag   0.15334   0.73501   0.73200   1.000
    Ag5     Ag   0.58157   0.84659   0.73236   1.000
    Ag6     Ag   0.26502   0.41842   0.73230   1.000
    Zn7     Zn   0.33331   0.66670   0.83031   1.000
    C8      C    0.09372   0.57567   0.79698   1.000
    C9      C    0.48190   0.90624   0.79699   1.000
    C10     C    0.42433   0.51804   0.79699   1.000
    C11     C    0.90626   0.42436   0.20301   1.000
    C12     C    0.51806   0.09372   0.20300   1.000
    C13     C    0.57566   0.48193   0.20304   1.000
    Ts14    Ts   0.70169   0.36980   0.19651   1.000
    Ts15    Ts   0.70639   0.34377   0.14537   1.000
    Ts16    Ts   0.66807   0.29820   0.19649   1.000
    Ts17    Ts   0.63734   0.29349   0.14534   1.000
    Ts18    Ts   0.63010   0.33181   0.19649   1.000
    Ts19    Ts   0.65612   0.36253   0.14535   1.000
    Ts20    Ts   0.86739   0.27407   0.30848   1.000
    Ts21    Ts   0.83641   0.22876   0.23555   1.000
    Ts22    Ts   0.78803   0.25268   0.26177   1.000
    Ts23    Ts   0.40662   0.13255   0.30849   1.000
    Ts24    Ts   0.39227   0.16349   0.23557   1.000
    Ts25    Ts   0.46462   0.21189   0.26178   1.000
    Ts26    Ts   0.77116   0.60771   0.23554   1.000
    Ts27    Ts   0.72589   0.59334   0.30848   1.000
    Ts28    Ts   0.74724   0.53536   0.26177   1.000
    Ts29    Ts   0.13252   0.72594   0.69125   1.000
    Ts30    Ts   0.16348   0.77124   0.76419   1.000
    Ts31    Ts   0.21188   0.74731   0.73797   1.000
    Ts32    Ts   0.59332   0.86739   0.69149   1.000
    Ts33    Ts   0.60767   0.83647   0.76441   1.000
    Ts34    Ts   0.53533   0.78806   0.73820   1.000
    Ts35    Ts   0.22881   0.39232   0.76438   1.000
    Ts36    Ts   0.27409   0.40666   0.69146   1.000
    Ts37    Ts   0.25272   0.46464   0.73815   1.000
    Ts38    Ts   0.29825   0.63016   0.80349   1.000
    Ts39    Ts   0.29355   0.65619   0.85464   1.000
    Ts40    Ts   0.33186   0.70177   0.80351   1.000
    Ts41    Ts   0.36260   0.70646   0.85464   1.000
    Ts42    Ts   0.36983   0.66814   0.80350   1.000
    Ts43    Ts   0.34381   0.63742   0.85464   1.000
    Ts44    Ts   0.06816   0.56764   0.79305   1.000
    Ts45    Ts   0.10943   0.56503   0.77807   1.000
    Ts46    Ts   0.10533   0.58755   0.82381   1.000
    Ts47    Ts   0.49942   0.93180   0.79304   1.000
    Ts48    Ts   0.45556   0.89055   0.77809   1.000
    Ts49    Ts   0.48218   0.89465   0.82382   1.000
    Ts50    Ts   0.43236   0.50049   0.79304   1.000
    Ts51    Ts   0.43494   0.54437   0.77808   1.000
    Ts52    Ts   0.41244   0.51776   0.82382   1.000
    Ts53    Ts   0.93183   0.43239   0.20694   1.000
    Ts54    Ts   0.89055   0.43499   0.22193   1.000
    Ts55    Ts   0.89466   0.41247   0.17619   1.000
    Ts56    Ts   0.50053   0.06816   0.20695   1.000
    Ts57    Ts   0.54438   0.10942   0.22191   1.000
    Ts58    Ts   0.51777   0.10531   0.17617   1.000
    Ts59    Ts   0.56763   0.49947   0.20698   1.000
    Ts60    Ts   0.56503   0.45559   0.22194   1.000
    Ts61    Ts   0.58754   0.48221   0.17621   1.000
loop_
    _geom_bond_atom_site_label_1
    _geom_bond_atom_site_label_2
    _geom_bond_distance
    _geom_bond_site_symmetry_2
    _ccdc_geom_bond_type
    C12    Ag2       2.43829      .   S
    C11    Ag1       2.43934      .   S
    C13    Ag3       2.43840      .   S
    Ag4    C8        2.44179      .   S
    Ag6    C10       2.43963      .   S
    Ag5    C9        2.43835      .   S
    Zn0    Ts14      0.71602      .   S
    Zn0    Ts15      0.68962      .   S
    Zn0    Ts16      0.71511      .   S
    Zn0    Ts17      0.68987      .   S
    Zn0    Ts18      0.71535      .   S
    Zn0    Ts19      0.68962      .   S
    Ag1    Ts20      0.72903      .   S
    Ag1    Ts21      0.73252      .   S
    Ag1    Ts22      0.84744      .   S
    Ag2    Ts23      0.72880      .   S
    Ag2    Ts24      0.73264      .   S
    Ag2    Ts25      0.84745      .   S
    Ag3    Ts26      0.73283      .   S
    Ag3    Ts27      0.72890      .   S
    Ag3    Ts28      0.84709      .   S
    Ag4    Ts29      0.72696      .   S
    Ag4    Ts30      0.73430      .   S
    Ag4    Ts31      0.84780      .   S
    Ag5    Ts32      0.72873      .   S
    Ag5    Ts33      0.73249      .   S
    Ag5    Ts34      0.84763      .   S
    Ag6    Ts35      0.73301      .   S
    Ag6    Ts36      0.72833      .   S
    Ag6    Ts37      0.84701      .   S
    Zn7    Ts38      0.71583      .   S
    Zn7    Ts39      0.68958      .   S
    Zn7    Ts40      0.71530      .   S
    Zn7    Ts41      0.68976      .   S
    Zn7    Ts42      0.71542      .   S
    Zn7    Ts43      0.68958      .   S
    C8     Ts44      0.36250      .   S
    C8     Ts45      0.47642      .   S
    C8     Ts46      0.47767      .   S
    C9     Ts47      0.36250      .   S
    C9     Ts48      0.47641      .   S
    C9     Ts49      0.47770      .   S
    C10    Ts50      0.36250      .   S
    C10    Ts51      0.47645      .   S
    C10    Ts52      0.47763      .   S
    C11    Ts53      0.36247      .   S
    C11    Ts54      0.47641      .   S
    C11    Ts55      0.47764      .   S
    C12    Ts56      0.36250      .   S
    C12    Ts57      0.47647      .   S
    C12    Ts58      0.47764      .   S
    C13    Ts59      0.36250      .   S
    C13    Ts60      0.47642      .   S
    C13    Ts61      0.47769      .   S
