# CIF file generated by openbabel 2.4.90, see http://openbabel.sf.net
data_I
_chemical_name_common ''
_cell_length_a 15.75
_cell_length_b 15.748
_cell_length_c 16.414
_cell_angle_alpha 89.999
_cell_angle_beta 89.999
_cell_angle_gamma 119.966
_space_group_name_H-M_alt 'P 1'
_space_group_name_Hall 'P 1'
loop_
    _symmetry_equiv_pos_as_xyz
    x,y,z
loop_
    _atom_site_label
    _atom_site_type_symbol
    _atom_site_fract_x
    _atom_site_fract_y
    _atom_site_fract_z
    _atom_site_occupancy
    N0      N    0.37553   0.00736   0.99668   1.000
    N1      N    0.56152   0.60784   0.58934   1.000
    N2      N    0.62442   0.99261   0.00326   1.000
    N3      N    0.00735   0.63183   0.00327   1.000
    N4      N    0.60784   0.04632   0.41066   1.000
    N5      N    0.39209   0.95365   0.58934   1.000
    N6      N    0.99263   0.36818   0.99672   1.000
    N7      N    0.95364   0.56155   0.41067   1.000
    N8      N    0.04631   0.43845   0.58933   1.000
    N9      N    0.36815   0.37551   0.00327   1.000
    N10     N    0.43843   0.39211   0.41066   1.000
    N11     N    0.63181   0.62446   0.99674   1.000
    Zr12    Zr   0.53173   0.87642   0.76467   1.000
    O13     O    0.47449   0.89729   0.72183   1.000
    O14     O    0.54255   0.90857   0.84246   1.000
    O15     O    0.57900   0.80218   0.82663   1.000
    O16     O    0.53430   0.77987   0.71495   1.000
    O17     O    0.56763   0.91924   0.65277   1.000
    Zr18    Zr   0.34468   0.46823   0.76464   1.000
    O19     O    0.42278   0.52546   0.72181   1.000
    O20     O    0.36600   0.45740   0.84245   1.000
    O21     O    0.35160   0.43234   0.65275   1.000
    O22     O    0.24556   0.46567   0.71493   1.000
    O23     O    0.22317   0.42098   0.82661   1.000
    Zr24    Zr   0.65530   0.53175   0.23531   1.000
    O25     O    0.57718   0.47451   0.27817   1.000
    O26     O    0.63397   0.54258   0.15754   1.000
    O27     O    0.64837   0.56764   0.34722   1.000
    O28     O    0.75441   0.53433   0.28504   1.000
    O29     O    0.77681   0.57903   0.17335   1.000
    Zr30    Zr   0.46822   0.12355   0.23531   1.000
    O31     O    0.52546   0.10267   0.27816   1.000
    O32     O    0.45740   0.09139   0.15751   1.000
    O33     O    0.46565   0.22009   0.28503   1.000
    O34     O    0.43232   0.08072   0.34722   1.000
    O35     O    0.42095   0.19779   0.17336   1.000
    Zr36    Zr   0.87641   0.34467   0.23530   1.000
    O37     O    0.91923   0.35160   0.34722   1.000
    O38     O    0.80215   0.22315   0.17335   1.000
    O39     O    0.77986   0.24555   0.28503   1.000
    O40     O    0.89729   0.42280   0.27817   1.000
    O41     O    0.90858   0.36601   0.15753   1.000
    Zr42    Zr   0.33331   0.66670   0.83031   1.000
    O43     O    0.34746   0.75159   0.76002   1.000
    O44     O    0.40406   0.65252   0.76002   1.000
    O45     O    0.41707   0.76309   0.88267   1.000
    O46     O    0.24841   0.59594   0.76001   1.000
    O47     O    0.34596   0.58292   0.88267   1.000
    O48     O    0.23691   0.65404   0.88267   1.000
    Zr49    Zr   0.12353   0.65534   0.76449   1.000
    O50     O    0.08071   0.64841   0.65263   1.000
    O51     O    0.19779   0.77685   0.82649   1.000
    O52     O    0.22008   0.75445   0.71482   1.000
    O53     O    0.10266   0.57721   0.72173   1.000
    O54     O    0.09139   0.63400   0.84237   1.000
    Zr55    Zr   0.66661   0.33325   0.16969   1.000
    O56     O    0.59588   0.34742   0.23998   1.000
    O57     O    0.75153   0.40403   0.23999   1.000
    O58     O    0.58286   0.23687   0.11731   1.000
    O59     O    0.76303   0.34593   0.11733   1.000
    O60     O    0.65247   0.24837   0.23998   1.000
    O61     O    0.65398   0.41703   0.11733   1.000
loop_
    _geom_bond_atom_site_label_1
    _geom_bond_atom_site_label_2
    _geom_bond_distance
    _geom_bond_site_symmetry_2
    _ccdc_geom_bond_type
    Zr12   O13       1.30830      .   S
    N5     O13       2.88995      .   S
    Zr12   O14       1.35260      .   S
    N2     O14       2.94543  1_554   S
    Zr12   O15       1.95568      .   S
    N11    O15       4.31808      .   S
    Zr12   O16       1.74380      .   S
    N1     O16       3.59647      .   S
    Zr12   O17       1.94101      .   S
    N4     O17       4.35107  1_545   S
    Zr18   O19       1.30852      .   S
    N1     O19       2.89028      .   S
    Zr18   O20       1.35276      .   S
    N9     O20       2.94543  1_554   S
    Zr18   O21       1.94075      .   S
    N10    O21       4.35055      .   S
    Zr18   O22       1.74407      .   S
    N8     O22       3.59701      .   S
    Zr18   O23       1.95647      .   S
    N6     O23       4.31932  1_655   S
    Zr24   O25       1.30883      .   S
    N10    O25       2.89056      .   S
    Zr24   O26       1.35231      .   S
    N11    O26       2.94521  1_556   S
    Zr24   O27       1.94086      .   S
    N1     O27       4.35093      .   S
    Zr24   O28       1.74400      .   S
    N7     O28       3.59715      .   S
    Zr24   O29       1.95647      .   S
    N3     O29       4.31900  1_455   S
    Zr30   O31       1.30823      .   S
    N4     O31       2.88985      .   S
    Zr30   O32       1.35272      .   S
    N0     O32       2.94593  1_556   S
    Zr30   O33       1.74376      .   S
    N10    O33       3.59644      .   S
    Zr30   O34       1.94107      .   S
    N5     O34       4.35119  1_565   S
    Zr30   O35       1.95570      .   S
    N9     O35       4.31794      .   S
    Zr36   O37       1.94101      .   S
    N8     O37       4.35149  1_455   S
    Zr36   O38       1.95668      .   S
    N2     O38       4.31964  1_565   S
    Zr36   O39       1.74468      .   S
    N4     O39       3.59779      .   S
    Zr36   O40       1.30869      .   S
    N7     O40       2.89059      .   S
    Zr36   O41       1.35250      .   S
    N6     O41       2.94530  1_556   S
    Zr42   O43       1.69420      .   S
    N5     O43       4.02905      .   S
    Zr42   O44       1.69442      .   S
    N1     O44       4.02951      .   S
    Zr42   O45       1.66814      .   S
    N2     O45       3.98198  1_554   S
    Zr42   O46       1.69498      .   S
    N8     O46       4.03062      .   S
    Zr42   O47       1.66775      .   S
    N9     O47       3.98111  1_554   S
    Zr42   O48       1.66775      .   S
    N3     O48       3.98113  1_554   S
    Zr49   O50       1.94019      .   S
    N7     O50       4.34911  1_655   S
    Zr49   O51       1.95688      .   S
    N0     O51       4.32056  1_545   S
    Zr49   O52       1.74410      .   S
    N5     O52       3.59613      .   S
    Zr49   O53       1.30785      .   S
    N8     O53       2.88935      .   S
    Zr49   O54       1.35397      .   S
    N3     O54       2.94663  1_554   S
    Zr55   O56       1.69430      .   S
    N10    O56       4.02928      .   S
    Zr55   O57       1.69516      .   S
    N7     O57       4.03088      .   S
    Zr55   O58       1.66822      .   S
    N0     O58       3.98209  1_556   S
    Zr55   O59       1.66786      .   S
    N6     O59       3.98141  1_556   S
    Zr55   O60       1.69408      .   S
    N4     O60       4.02895      .   S
    Zr55   O61       1.66776      .   S
    N11    O61       3.98112  1_556   S
