# CIF file generated by openbabel 2.4.90, see http://openbabel.sf.net
data_I
_chemical_name_common ''
_cell_length_a 15.75
_cell_length_b 15.748
_cell_length_c 16.414
_cell_angle_alpha 89.999
_cell_angle_beta 89.999
_cell_angle_gamma 119.966
_space_group_name_H-M_alt 'P 1'
_space_group_name_Hall 'P 1'
loop_
    _symmetry_equiv_pos_as_xyz
    x,y,z
loop_
    _atom_site_label
    _atom_site_type_symbol
    _atom_site_fract_x
    _atom_site_fract_y
    _atom_site_fract_z
    _atom_site_occupancy
    Zr0     Zr   0.33331   0.66670   0.83031   1.000
    Zr1     Zr   0.66661   0.33325   0.16969   1.000
    Zr2     Zr   0.84656   0.26498   0.26760   1.000
    Zr3     Zr   0.41839   0.15338   0.26762   1.000
    Zr4     Zr   0.73493   0.58158   0.26759   1.000
    Zr5     Zr   0.15334   0.73501   0.73200   1.000
    Zr6     Zr   0.58157   0.84659   0.73236   1.000
    Zr7     Zr   0.26502   0.41842   0.73230   1.000
    Zr8     Zr   0.09372   0.57567   0.79698   1.000
    Zr9     Zr   0.48190   0.90624   0.79699   1.000
    Zr10    Zr   0.42433   0.51804   0.79699   1.000
    Zr11    Zr   0.90626   0.42436   0.20301   1.000
    Zr12    Zr   0.51806   0.09372   0.20300   1.000
    Zr13    Zr   0.57566   0.48193   0.20304   1.000
    O14     O    0.46822   0.12355   0.23531   1.000
    O15     O    0.87641   0.34467   0.23530   1.000
    O16     O    0.65530   0.53175   0.23531   1.000
    O17     O    0.12353   0.65534   0.76449   1.000
    O18     O    0.34468   0.46823   0.76464   1.000
    O19     O    0.53173   0.87642   0.76467   1.000
    N20     N    0.37553   0.00736   0.99668   1.000
    O21     O    0.44658   0.05923   0.07972   1.000
    O22     O    0.49912   0.14048   0.06493   1.000
    O23     O    0.27204   0.89836   0.88848   1.000
    N24     N    0.56152   0.60784   0.58934   1.000
    O25     O    0.50089   0.58269   0.67898   1.000
    O26     O    0.64145   0.60353   0.45913   1.000
    O27     O    0.53687   0.68332   0.66523   1.000
    O28     O    0.47480   0.63835   0.68972   1.000
    N29     N    0.62442   0.99261   0.00326   1.000
    O30     O    0.55337   0.94073   0.92025   1.000
    O31     O    0.72788   0.10163   0.11139   1.000
    O32     O    0.50083   0.85947   0.93503   1.000
    N33     N    0.00735   0.63183   0.00327   1.000
    O34     O    0.05924   0.61266   0.92024   1.000
    O35     O    0.89832   0.62630   0.11139   1.000
    O36     O    0.14051   0.64139   0.93504   1.000
    N37     N    0.60784   0.04632   0.41066   1.000
    O38     O    0.58269   0.08180   0.32102   1.000
    O39     O    0.63832   0.16350   0.31028   1.000
    O40     O    0.68331   0.14643   0.33476   1.000
    O41     O    0.60352   0.96206   0.54086   1.000
    N42     N    0.39209   0.95365   0.58934   1.000
    O43     O    0.31662   0.85355   0.66515   1.000
    O44     O    0.36161   0.83647   0.68972   1.000
    O45     O    0.41724   0.91817   0.67899   1.000
    O46     O    0.39641   0.03789   0.45913   1.000
    N47     N    0.99263   0.36818   0.99672   1.000
    O48     O    0.10166   0.37373   0.88857   1.000
    O49     O    0.94074   0.38736   0.07975   1.000
    O50     O    0.85945   0.35861   0.06496   1.000
    N51     N    0.95364   0.56155   0.41067   1.000
    O52     O    0.03788   0.64147   0.54078   1.000
    O53     O    0.91817   0.50092   0.32103   1.000
    O54     O    0.85352   0.53690   0.33477   1.000
    O55     O    0.83644   0.47481   0.31029   1.000
    N56     N    0.04631   0.43845   0.58933   1.000
    O57     O    0.08179   0.49908   0.67897   1.000
    O58     O    0.96205   0.35853   0.45913   1.000
    O59     O    0.16351   0.52517   0.68971   1.000
    O60     O    0.14644   0.46310   0.66521   1.000
    N61     N    0.36815   0.37551   0.00327   1.000
    O62     O    0.35860   0.49915   0.93504   1.000
    O63     O    0.37368   0.27203   0.11141   1.000
    O64     O    0.38733   0.44657   0.92025   1.000
    N65     N    0.43843   0.39211   0.41066   1.000
    O66     O    0.52514   0.36160   0.31028   1.000
    O67     O    0.46308   0.31663   0.33476   1.000
    O68     O    0.49907   0.41726   0.32103   1.000
    O69     O    0.35853   0.39644   0.54085   1.000
    N70     N    0.63181   0.62446   0.99674   1.000
    O71     O    0.61265   0.55340   0.07977   1.000
    O72     O    0.64134   0.50081   0.06496   1.000
    O73     O    0.62627   0.72794   0.88858   1.000
    N74     N    0.53447   0.98292   0.78515   1.000
    O75     O    0.52133   0.96375   0.78811   1.000
    N76     N    0.46548   0.01704   0.21485   1.000
    O77     O    0.47862   0.03621   0.21189   1.000
    N78     N    0.44842   0.46541   0.78515   1.000
    O79     O    0.44239   0.47857   0.78811   1.000
    N80     N    0.55156   0.53455   0.21486   1.000
    O81     O    0.55759   0.52140   0.21190   1.000
    N82     N    0.98294   0.44843   0.21480   1.000
    O83     O    0.96377   0.44241   0.21185   1.000
    N84     N    0.01703   0.55158   0.78518   1.000
    O85     O    0.03621   0.55760   0.78813   1.000
loop_
    _geom_bond_atom_site_label_1
    _geom_bond_atom_site_label_2
    _geom_bond_distance
    _geom_bond_site_symmetry_2
    _ccdc_geom_bond_type
    Zr12   O14       1.21915      .   S
    Zr3    O14       1.21915      .   S
    Zr11   O15       1.21967      .   S
    Zr2    O15       1.21967      .   S
    Zr13   O16       1.21920      .   S
    Zr4    O16       1.21920      .   S
    Zr5    O17       1.22090      .   S
    Zr8    O17       1.22090      .   S
    Zr7    O18       1.21981      .   S
    Zr10   O18       1.21981      .   S
    Zr6    O19       1.21917      .   S
    Zr9    O19       1.21917      .   S
    N20    O21       1.69234  1_556   S
    Zr12   O21       2.24643      .   S
    N20    O22       2.31568  1_556   S
    Zr1    O22       3.33645      .   S
    N20    O23       2.44183  1_545   S
    Zr5    O23       3.45046      .   S
    N24    O25       1.68991      .   S
    Zr10   O25       2.23963      .   S
    N24    O26       2.49850      .   S
    Zr4    O26       3.56092      .   S
    N24    O27       1.89119      .   S
    Zr6    O27       2.55190      .   S
    N24    O28       2.33804      .   S
    Zr0    O28       3.38884      .   S
    N29    O30       1.69200  1_554   S
    Zr9    O30       2.24609      .   S
    N29    O31       2.44100  1_565   S
    Zr2    O31       3.44710      .   S
    N29    O32       2.31564  1_554   S
    Zr0    O32       3.33628      .   S
    N33    O34       1.69191  1_554   S
    Zr8    O34       2.24588      .   S
    N33    O35       2.44071  1_455   S
    Zr4    O35       3.44677      .   S
    N33    O36       2.31520  1_554   S
    Zr0    O36       3.33549      .   S
    N37    O38       1.68973      .   S
    Zr12   O38       2.23940      .   S
    N37    O39       2.33781      .   S
    Zr1    O39       3.38815      .   S
    N37    O40       1.89165      .   S
    Zr2    O40       2.55271      .   S
    N37    O41       2.49842  1_545   S
    Zr6    O41       3.56067      .   S
    N42    O43       1.89050      .   S
    Zr5    O43       2.55073      .   S
    N42    O44       2.33780      .   S
    Zr0    O44       3.38839      .   S
    N42    O45       1.68981      .   S
    Zr9    O45       2.23939      .   S
    N42    O46       2.49845  1_565   S
    Zr3    O46       3.56082      .   S
    N47    O48       2.44098  1_655   S
    Zr7    O48       3.44752      .   S
    N47    O49       1.69194  1_556   S
    Zr11   O49       2.24586      .   S
    N47    O50       2.31537  1_556   S
    Zr1    O50       3.33571      .   S
    N51    O52       2.49735  1_655   S
    Zr5    O52       3.55711      .   S
    N51    O53       1.68995      .   S
    Zr11   O53       2.23956      .   S
    N51    O54       1.89164      .   S
    Zr4    O54       2.55198      .   S
    N51    O55       2.33867      .   S
    Zr1    O55       3.39032      .   S
    N56    O57       1.68994      .   S
    Zr8    O57       2.23954      .   S
    N56    O58       2.49884  1_455   S
    Zr2    O58       3.56167      .   S
    N56    O59       2.33859      .   S
    Zr0    O59       3.38995      .   S
    N56    O60       1.89141      .   S
    Zr7    O60       2.55128      .   S
    N61    O62       2.31518  1_554   S
    Zr0    O62       3.33550      .   S
    N61    O63       2.44046      .   S
    Zr3    O63       3.44616      .   S
    N61    O64       1.69189  1_554   S
    Zr10   O64       2.24592      .   S
    N65    O66       2.33793      .   S
    Zr1    O66       3.38860      .   S
    N65    O67       1.89120      .   S
    Zr3    O67       2.55178      .   S
    N65    O68       1.68981      .   S
    Zr13   O68       2.23946      .   S
    N65    O69       2.49820      .   S
    Zr7    O69       3.55990      .   S
    N70    O71       1.69208  1_556   S
    Zr13   O71       2.24619      .   S
    N70    O72       2.31517  1_556   S
    Zr1    O72       3.33553      .   S
    N70    O73       2.44060      .   S
    Zr6    O73       3.44622      .   S
    N74    O75       0.27187      .   S
    Zr9    O75       0.81562      .   S
    N76    O77       0.27187      .   S
    Zr12   O77       0.81562      .   S
    N78    O79       0.27188      .   S
    Zr10   O79       0.81563      .   S
    N80    O81       0.27187      .   S
    Zr13   O81       0.81562      .   S
    N82    O83       0.27185      .   S
    Zr11   O83       0.81555      .   S
    N84    O85       0.27187      .   S
    Zr8    O85       0.81562      .   S
