# CIF file generated by openbabel 2.4.90, see http://openbabel.sf.net
data_I
_chemical_name_common ''
_cell_length_a 20.975
_cell_length_b 18.056
_cell_length_c 18.058
_cell_angle_alpha 120.058
_cell_angle_beta 90.008
_cell_angle_gamma 90.002
_space_group_name_H-M_alt 'P 1'
_space_group_name_Hall 'P 1'
loop_
    _symmetry_equiv_pos_as_xyz
    x,y,z
loop_
    _atom_site_label
    _atom_site_type_symbol
    _atom_site_fract_x
    _atom_site_fract_y
    _atom_site_fract_z
    _atom_site_occupancy
    Zn0     Zn   0.96103   0.92342   0.47000   1.000
    Zn1     Zn   0.12769   0.55051   0.07647   1.000
    Zn2     Zn   0.62769   0.55051   0.07647   1.000
    Zn3     Zn   0.29434   0.52569   0.44929   1.000
    Zn4     Zn   0.79435   0.52569   0.44929   1.000
    Zn5     Zn   0.21102   0.07653   0.52601   1.000
    Zn6     Zn   0.71102   0.07653   0.52601   1.000
    Zn7     Zn   0.37767   0.44956   0.92357   1.000
    Zn8     Zn   0.87767   0.44956   0.92357   1.000
    Zn9     Zn   0.04435   0.47425   0.55074   1.000
    Zn10    Zn   0.54436   0.47425   0.55074   1.000
    Zn11    Zn   0.46103   0.92342   0.47399   1.000
    C12     C    0.06374   0.04863   0.51256   1.000
    C13     C    0.56375   0.04863   0.51256   1.000
    C14     C    0.23039   0.46399   0.95130   1.000
    C15     C    0.73039   0.46399   0.95130   1.000
    C16     C    0.39705   0.48754   0.53609   1.000
    C17     C    0.89705   0.48754   0.53609   1.000
    C18     C    0.31376   0.95133   0.48739   1.000
    C19     C    0.81376   0.95133   0.48739   1.000
    C20     C    0.48040   0.53611   0.04876   1.000
    C21     C    0.98040   0.53611   0.04876   1.000
    C22     C    0.14705   0.51237   0.46392   1.000
    C23     C    0.64705   0.51237   0.46392   1.000
    Br24    Br   0.44755   0.86529   0.32300   1.000
    Br25    Br   0.94755   0.86529   0.32300   1.000
    Br26    Br   0.11416   0.45836   0.13442   1.000
    Br27    Br   0.61416   0.45836   0.13442   1.000
    Br28    Br   0.28077   0.67596   0.54128   1.000
    Br29    Br   0.78078   0.67596   0.54128   1.000
    Br30    Br   0.19753   0.13467   0.67620   1.000
    Br31    Br   0.69754   0.13466   0.67620   1.000
    Br32    Br   0.36416   0.54173   0.86564   1.000
    Br33    Br   0.86416   0.54173   0.86564   1.000
    Br34    Br   0.03077   0.32397   0.45875   1.000
    Br35    Br   0.53077   0.32397   0.45875   1.000
    O36     O    0.06141   0.96873   0.48723   1.000
    O37     O    0.56141   0.96873   0.48720   1.000
    O38     O    0.11074   0.08680   0.50272   1.000
    O39     O    0.61074   0.08680   0.50272   1.000
    O40     O    0.22803   0.51848   0.03124   1.000
    O41     O    0.72803   0.51848   0.03124   1.000
    O42     O    0.27738   0.41595   0.91309   1.000
    O43     O    0.77739   0.41595   0.91309   1.000
    O44     O    0.39470   0.51265   0.48142   1.000
    O45     O    0.89470   0.51266   0.48142   1.000
    O46     O    0.44403   0.49762   0.58422   1.000
    O47     O    0.94403   0.49762   0.58422   1.000
    O48     O    0.31141   0.03124   0.51278   1.000
    O49     O    0.81141   0.03124   0.51278   1.000
    O50     O    0.36074   0.91316   0.49726   1.000
    O51     O    0.86074   0.91316   0.49726   1.000
    O52     O    0.47803   0.48159   0.96883   1.000
    O53     O    0.97803   0.48159   0.96883   1.000
    O54     O    0.02741   0.58413   0.08698   1.000
    O55     O    0.52741   0.58413   0.08698   1.000
    O56     O    0.14470   0.48728   0.51861   1.000
    O57     O    0.64471   0.48728   0.51861   1.000
    O58     O    0.19401   0.50228   0.41579   1.000
    O59     O    0.69402   0.50228   0.41579   1.000
loop_
    _geom_bond_atom_site_label_1
    _geom_bond_atom_site_label_2
    _geom_bond_distance
    _geom_bond_site_symmetry_2
    _ccdc_geom_bond_type
    O41    Zn2       2.22677      .   S
    O41    C15       1.27732  1_554   S
    O40    Zn1       2.22677      .   S
    O40    C14       1.27732  1_554   S
    C21    O54       1.26509  1_655   S
    C21    O53       1.27730  1_554   S
    C20    O55       1.26519      .   S
    C20    O52       1.27731  1_554   S
    Zn2    O55       2.17114      .   S
    Zn2    Br27      2.38495      .   S
    Zn1    O54       2.17115      .   S
    Zn1    Br26      2.38495      .   S
    Br24   Zn11      2.39766      .   S
    Br25   Zn0       2.33169      .   S
    O58    Zn3       2.17178      .   S
    O58    C22       1.26520      .   S
    O59    Zn4       2.17178      .   S
    O59    C23       1.26520      .   S
    Zn3    O44       2.22694      .   S
    Zn3    Br28      2.38490      .   S
    Zn4    O45       2.22694      .   S
    Zn4    Br29      2.38492      .   S
    Br35   Zn10      2.38490      .   S
    Br34   Zn9       2.38491      .   S
    C22    O56       1.27724      .   S
    C23    O57       1.27723      .   S
    Zn0    O36       2.22347  1_655   S
    Zn0    O51       2.18930      .   S
    Zn11   O37       2.22800      .   S
    Zn11   O50       2.17114      .   S
    O44    C16       1.27712      .   S
    O45    C17       1.27713      .   S
    O37    C13       1.27739  1_565   S
    O36    C12       1.27750  1_565   S
    C19    O51       1.26524      .   S
    C19    O49       1.27750  1_565   S
    C18    O50       1.26524      .   S
    C18    O48       1.27750  1_565   S
    O38    C12       1.26527      .   S
    O38    Zn5       2.17114      .   S
    O39    C13       1.26525      .   S
    O39    Zn6       2.17114      .   S
    O49    Zn6       2.22797      .   S
    O48    Zn5       2.22796      .   S
    O57    Zn10      2.22693      .   S
    O56    Zn9       2.22692      .   S
    Zn5    Br30      2.38451      .   S
    Zn6    Br31      2.38451      .   S
    C17    O47       1.26527      .   S
    C16    O46       1.26527      .   S
    Zn10   O46       2.17177      .   S
    Zn9    O47       2.17165  1_455   S
    Br32   Zn7       2.38500      .   S
    Br33   Zn8       2.38500      .   S
    O43    Zn8       2.17113      .   S
    O43    C15       1.26522      .   S
    O42    Zn7       2.17113      .   S
    O42    C14       1.26522      .   S
    Zn7    O52       2.22694      .   S
    Zn8    O53       2.22696      .   S
