# CIF file generated by openbabel 2.4.90, see http://openbabel.sf.net
data_I
_chemical_name_common ''
_cell_length_a 20.975
_cell_length_b 18.056
_cell_length_c 18.058
_cell_angle_alpha 120.058
_cell_angle_beta 90.008
_cell_angle_gamma 90.002
_space_group_name_H-M_alt 'P 1'
_space_group_name_Hall 'P 1'
loop_
    _symmetry_equiv_pos_as_xyz
    x,y,z
loop_
    _atom_site_label
    _atom_site_type_symbol
    _atom_site_fract_x
    _atom_site_fract_y
    _atom_site_fract_z
    _atom_site_occupancy
    Zr0     Zr   0.46103   0.92342   0.47399   1.000
    Zr1     Zr   0.96103   0.92342   0.47000   1.000
    Zr2     Zr   0.12769   0.55051   0.07647   1.000
    Zr3     Zr   0.62769   0.55051   0.07647   1.000
    Zr4     Zr   0.29434   0.52569   0.44929   1.000
    Zr5     Zr   0.79435   0.52569   0.44929   1.000
    Zr6     Zr   0.21102   0.07653   0.52601   1.000
    Zr7     Zr   0.71102   0.07653   0.52601   1.000
    Zr8     Zr   0.37767   0.44956   0.92357   1.000
    Zr9     Zr   0.87767   0.44956   0.92357   1.000
    Zr10    Zr   0.04435   0.47425   0.55074   1.000
    Zr11    Zr   0.54436   0.47425   0.55074   1.000
    Zr12    Zr   0.44755   0.86529   0.32300   1.000
    Zr13    Zr   0.94755   0.86529   0.32300   1.000
    Zr14    Zr   0.11416   0.45836   0.13442   1.000
    Zr15    Zr   0.61416   0.45836   0.13442   1.000
    Zr16    Zr   0.28077   0.67596   0.54128   1.000
    Zr17    Zr   0.78078   0.67596   0.54128   1.000
    Zr18    Zr   0.19753   0.13467   0.67620   1.000
    Zr19    Zr   0.69754   0.13466   0.67620   1.000
    Zr20    Zr   0.36416   0.54173   0.86564   1.000
    Zr21    Zr   0.86416   0.54173   0.86564   1.000
    Zr22    Zr   0.03077   0.32397   0.45875   1.000
    Zr23    Zr   0.53077   0.32397   0.45875   1.000
    O24     O    0.62093   0.50444   0.10544   1.000
    O25     O    0.12092   0.50444   0.10544   1.000
    O26     O    0.45429   0.89436   0.39849   1.000
    O27     O    0.95429   0.89436   0.39650   1.000
    O28     O    0.28756   0.60082   0.49528   1.000
    O29     O    0.78756   0.60082   0.49528   1.000
    O30     O    0.53756   0.39911   0.50474   1.000
    O31     O    0.03756   0.39911   0.50474   1.000
    O32     O    0.20428   0.10560   0.60110   1.000
    O33     O    0.70428   0.10560   0.60110   1.000
    O34     O    0.37091   0.49565   0.89460   1.000
    O35     O    0.87092   0.49565   0.89460   1.000
    N36     N    0.10909   0.46502   0.82943   1.000
    O37     O    0.11645   0.49818   0.92015   1.000
    O38     O    0.08189   0.48140   0.72223   1.000
    N39     N    0.77579   0.36454   0.53513   1.000
    O40     O    0.74857   0.24093   0.51885   1.000
    O41     O    0.78314   0.42197   0.50186   1.000
    N42     N    0.27579   0.36454   0.53516   1.000
    O43     O    0.28314   0.42196   0.50187   1.000
    O44     O    0.24857   0.24093   0.51887   1.000
    N45     N    0.69249   0.82941   0.36446   1.000
    O46     O    0.66527   0.72211   0.24087   1.000
    O47     O    0.69983   0.92016   0.42202   1.000
    N48     N    0.19248   0.82941   0.36446   1.000
    O49     O    0.16526   0.72211   0.24088   1.000
    O50     O    0.19983   0.92016   0.42202   1.000
    N51     N    0.60909   0.46502   0.82943   1.000
    O52     O    0.61646   0.49818   0.92015   1.000
    O53     O    0.58189   0.48140   0.72223   1.000
    N54     N    0.44245   0.17056   0.63542   1.000
    O55     O    0.41523   0.27792   0.75906   1.000
    O56     O    0.44981   0.07981   0.57790   1.000
    N57     N    0.94246   0.17056   0.63540   1.000
    O58     O    0.91523   0.27792   0.75905   1.000
    O59     O    0.94982   0.07981   0.57690   1.000
    N60     N    0.85909   0.53505   0.17055   1.000
    O61     O    0.83187   0.51862   0.27778   1.000
    O62     O    0.86645   0.50189   0.07984   1.000
    N63     N    0.35908   0.53505   0.17059   1.000
    O64     O    0.33187   0.51862   0.27780   1.000
    O65     O    0.36645   0.50189   0.07986   1.000
    N66     N    0.52578   0.63534   0.46479   1.000
    O67     O    0.49856   0.75897   0.48109   1.000
    O68     O    0.53314   0.57793   0.49811   1.000
    N69     N    0.02578   0.63534   0.46479   1.000
    O70     O    0.03314   0.57794   0.49811   1.000
    O71     O    0.99857   0.75897   0.48009   1.000
    C72     C    0.32863   0.96524   0.49914   1.000
    O73     O    0.36976   0.94177   0.49238   1.000
    O74     O    0.29492   0.00956   0.50927   1.000
    O75     O    0.28371   0.92063   0.45651   1.000
    C76     C    0.82864   0.96524   0.49914   1.000
    O77     O    0.78371   0.92063   0.45651   1.000
    O78     O    0.86976   0.94177   0.49139   1.000
    O79     O    0.79493   0.00956   0.50927   1.000
    C80     C    0.07863   0.03472   0.50084   1.000
    O81     O    0.03370   0.07933   0.54343   1.000
    O82     O    0.11975   0.05819   0.50760   1.000
    O83     O    0.04492   0.99040   0.48973   1.000
    C84     C    0.57863   0.03472   0.50083   1.000
    O85     O    0.53370   0.07933   0.54343   1.000
    O86     O    0.54493   0.99040   0.49071   1.000
    O87     O    0.61976   0.05819   0.50760   1.000
    C88     C    0.16192   0.50064   0.46611   1.000
    O89     O    0.11701   0.54327   0.46408   1.000
    O90     O    0.20305   0.50731   0.44932   1.000
    O91     O    0.12822   0.49070   0.50039   1.000
    C92     C    0.41193   0.49927   0.53391   1.000
    O93     O    0.36701   0.45663   0.53592   1.000
    O94     O    0.45306   0.49260   0.55069   1.000
    O95     O    0.37822   0.50922   0.49963   1.000
    C96     C    0.66192   0.50064   0.46611   1.000
    O97     O    0.61701   0.54327   0.46408   1.000
    O98     O    0.62823   0.49070   0.50039   1.000
    O99     O    0.70305   0.50731   0.44932   1.000
    C100    C    0.91193   0.49927   0.53391   1.000
    O101    O    0.86702   0.45663   0.53591   1.000
    O102    O    0.87823   0.50922   0.49963   1.000
    O103    O    0.95306   0.49260   0.55069   1.000
    C104    C    0.99528   0.53394   0.03486   1.000
    O105    O    0.95035   0.53591   0.07943   1.000
    O106    O    0.03641   0.55063   0.05829   1.000
    O107    O    0.96157   0.49976   0.99053   1.000
    C108    C    0.74527   0.46614   0.96521   1.000
    O109    O    0.70034   0.46418   0.92062   1.000
    O110    O    0.71157   0.50032   0.00953   1.000
    O111    O    0.78640   0.44945   0.94177   1.000
    C112    C    0.49528   0.53394   0.03486   1.000
    O113    O    0.45034   0.53591   0.07944   1.000
    O114    O    0.46156   0.49976   0.99053   1.000
    O115    O    0.53641   0.55063   0.05829   1.000
    C116    C    0.24527   0.46614   0.96521   1.000
    O117    O    0.20034   0.46418   0.92062   1.000
    O118    O    0.21156   0.50031   0.00953   1.000
    O119    O    0.28640   0.44945   0.94177   1.000
loop_
    _geom_bond_atom_site_label_1
    _geom_bond_atom_site_label_2
    _geom_bond_distance
    _geom_bond_site_symmetry_2
    _ccdc_geom_bond_type
    Zr3    O24       1.19247      .   S
    Zr15   O24       1.19247      .   S
    Zr2    O25       1.19247      .   S
    Zr14   O25       1.19247      .   S
    Zr12   O26       1.19883      .   S
    Zr0    O26       1.19883      .   S
    Zr13   O27       1.16584      .   S
    Zr1    O27       1.16584      .   S
    Zr4    O28       1.19245      .   S
    Zr16   O28       1.19245      .   S
    Zr5    O29       1.19246      .   S
    Zr17   O29       1.19246      .   S
    Zr23   O30       1.19245      .   S
    Zr11   O30       1.19245      .   S
    Zr22   O31       1.19245      .   S
    Zr10   O31       1.19245      .   S
    Zr6    O32       1.19225      .   S
    Zr18   O32       1.19225      .   S
    Zr7    O33       1.19226      .   S
    Zr19   O33       1.19226      .   S
    Zr20   O34       1.19250      .   S
    Zr8    O34       1.19250      .   S
    Zr21   O35       1.19250      .   S
    Zr9    O35       1.19250      .   S
    N36    O37       1.44342      .   S
    Zr2    O37       2.49886  1_554   S
    N36    O38       2.17579      .   S
    Zr10   O38       3.13450      .   S
    N39    O40       2.17626      .   S
    Zr7    O40       3.13580      .   S
    N39    O41       1.44357      .   S
    Zr5    O41       2.49891      .   S
    N42    O43       1.44384      .   S
    Zr4    O43       2.49918      .   S
    N42    O44       2.17612      .   S
    Zr6    O44       3.13560      .   S
    N45    O46       2.17448      .   S
    Zr3    O46       3.13360      .   S
    N45    O47       1.44316      .   S
    Zr7    O47       2.49837  1_545   S
    N48    O49       2.17449      .   S
    Zr2    O49       3.13361      .   S
    N48    O50       1.44316      .   S
    Zr6    O50       2.49836  1_545   S
    N51    O52       1.44347      .   S
    Zr3    O52       2.49892  1_554   S
    N51    O53       2.17564      .   S
    Zr11   O53       3.13452      .   S
    N54    O55       2.17570      .   S
    Zr8    O55       3.13503      .   S
    N54    O56       1.44318      .   S
    Zr0    O56       2.49844  1_565   S
    N57    O58       2.17577      .   S
    Zr9    O58       3.13509      .   S
    N57    O59       1.44599      .   S
    Zr1    O59       2.50897  1_565   S
    N60    O61       2.17685      .   S
    Zr5    O61       3.13574      .   S
    N60    O62       1.44329      .   S
    Zr9    O62       2.49821  1_556   S
    N63    O64       2.17655      .   S
    Zr4    O64       3.13543      .   S
    N63    O65       1.44358      .   S
    Zr8    O65       2.49851  1_556   S
    N66    O67       2.17648      .   S
    Zr0    O67       3.13618      .   S
    N66    O68       1.44391      .   S
    Zr11   O68       2.49919      .   S
    N69    O70       1.44393      .   S
    Zr10   O70       2.49921      .   S
    N69    O71       2.18332  1_455   S
    Zr1    O71       3.16433      .   S
    C72    O73       0.94171      .   S
    Zr0    O73       1.94285      .   S
    C72    O74       1.01356  1_565   S
    Zr6    O74       2.06993      .   S
    C72    O75       1.22800      .   S
    N48    O75       2.52855      .   S
    C76    O77       1.22800      .   S
    N45    O77       2.52855      .   S
    C76    O78       0.94016      .   S
    Zr1    O78       1.94822      .   S
    C76    O79       1.01356  1_565   S
    Zr7    O79       2.06994      .   S
    C80    O81       1.22811      .   S
    N57    O81       2.52885  1_655   S
    C80    O82       0.94164      .   S
    Zr6    O82       1.94275      .   S
    C80    O83       1.00975  1_545   S
    Zr1    O83       2.06253  1_655   S
    C84    O85       1.22817      .   S
    N54    O85       2.52900      .   S
    C84    O86       1.01349  1_545   S
    Zr0    O86       2.06989      .   S
    C84    O87       0.94163      .   S
    Zr7    O87       1.94275      .   S
    C88    O89       1.22871      .   S
    N69    O89       2.53060      .   S
    C88    O90       0.94192      .   S
    Zr4    O90       1.94346      .   S
    C88    O91       1.01313      .   S
    Zr10   O91       2.06895      .   S
    C92    O93       1.22867      .   S
    N42    O93       2.53050      .   S
    C92    O94       0.94194      .   S
    Zr11   O94       1.94348      .   S
    C92    O95       1.01313      .   S
    Zr4    O95       2.06897      .   S
    C96    O97       1.22870      .   S
    N66    O97       2.53059      .   S
    C96    O98       1.01313      .   S
    Zr11   O98       2.06896      .   S
    C96    O99       0.94192      .   S
    Zr5    O99       1.94346      .   S
    C100   O101      1.22861      .   S
    N39    O101      2.53033      .   S
    C100   O102      1.01313      .   S
    Zr5    O102      2.06897      .   S
    C100   O103      0.94191      .   S
    Zr10   O103      1.94339  1_455   S
    C104   O105      1.22837      .   S
    N60    O105      2.52956      .   S
    C104   O106      0.94151  1_655   S
    Zr2    O106      1.94261      .   S
    C104   O107      1.01324  1_554   S
    Zr9    O107      2.06913      .   S
    C108   O109      1.22844      .   S
    N51    O109      2.52964      .   S
    C108   O110      1.01320  1_556   S
    Zr3    O110      2.06899      .   S
    C108   O111      0.94157      .   S
    Zr9    O111      1.94269      .   S
    C112   O113      1.22849      .   S
    N63    O113      2.52988      .   S
    C112   O114      1.01326  1_554   S
    Zr8    O114      2.06914      .   S
    C112   O115      0.94155      .   S
    Zr3    O115      1.94266      .   S
    C116   O117      1.22841      .   S
    N36    O117      2.52958      .   S
    C116   O118      1.01320  1_556   S
    Zr2    O118      2.06899      .   S
    C116   O119      0.94157      .   S
    Zr8    O119      1.94269      .   S
