# CIF file generated by openbabel 2.4.90, see http://openbabel.sf.net
data_I
_chemical_name_common ''
_cell_length_a 21.562
_cell_length_b 17.666
_cell_length_c 17.196
_cell_angle_alpha 89.986
_cell_angle_beta 89.955
_cell_angle_gamma 90.011
_space_group_name_H-M_alt 'P 1'
_space_group_name_Hall 'P 1'
loop_
    _symmetry_equiv_pos_as_xyz
    x,y,z
loop_
    _atom_site_label
    _atom_site_type_symbol
    _atom_site_fract_x
    _atom_site_fract_y
    _atom_site_fract_z
    _atom_site_occupancy
    H0      H    0.12294   0.40211   0.13883   1.000
    H1      H    0.62350   0.40142   0.13805   1.000
    H2      H    0.10532   0.30027   0.23629   1.000
    H3      H    0.60532   0.30032   0.23605   1.000
    H4      H    0.28896   0.46786   0.26007   1.000
    H5      H    0.78912   0.46754   0.25986   1.000
    H6      H    0.09648   0.45045   0.83879   1.000
    H7      H    0.59686   0.45133   0.83870   1.000
    H8      H    0.08457   0.35155   0.73666   1.000
    H9      H    0.58508   0.35198   0.73697   1.000
    H10     H    0.28125   0.49658   0.75710   1.000
    H11     H    0.78175   0.49713   0.75740   1.000
    H12     H    0.12720   0.59687   0.63816   1.000
    H13     H    0.62661   0.59728   0.63820   1.000
    H14     H    0.14562   0.69818   0.73585   1.000
    H15     H    0.64431   0.69908   0.73550   1.000
    H16     H    0.46120   0.53087   0.76073   1.000
    H17     H    0.96112   0.53219   0.76010   1.000
    H18     H    0.15341   0.54814   0.33959   1.000
    H19     H    0.65287   0.54688   0.33883   1.000
    H20     H    0.16529   0.64729   0.23762   1.000
    H21     H    0.66498   0.64575   0.23659   1.000
    H22     H    0.46809   0.50108   0.25746   1.000
    H23     H    0.96872   0.50189   0.25815   1.000
    H24     H    0.37606   0.90132   0.36104   1.000
    H25     H    0.87759   0.90210   0.35953   1.000
    H26     H    0.39410   0.80006   0.26309   1.000
    H27     H    0.89513   0.80104   0.26141   1.000
    H28     H    0.21093   0.96827   0.23865   1.000
    H29     H    0.71071   0.96739   0.23996   1.000
    H30     H    0.40315   0.95038   0.65949   1.000
    H31     H    0.90387   0.95072   0.66011   1.000
    H32     H    0.41509   0.85134   0.76157   1.000
    H33     H    0.91585   0.85164   0.76212   1.000
    H34     H    0.21863   0.99690   0.74158   1.000
    H35     H    0.71934   0.99704   0.74230   1.000
    H36     H    0.37236   0.09619   0.86075   1.000
    H37     H    0.87317   0.09819   0.86056   1.000
    H38     H    0.35446   0.19783   0.76324   1.000
    H39     H    0.85532   0.19946   0.76261   1.000
    H40     H    0.03786   0.03052   0.73736   1.000
    H41     H    0.53866   0.03137   0.73939   1.000
    H42     H    0.34749   0.04700   0.16073   1.000
    H43     H    0.84627   0.04748   0.15945   1.000
    H44     H    0.33535   0.14574   0.26309   1.000
    H45     H    0.83431   0.14710   0.26090   1.000
    H46     H    0.03087   0.00165   0.24131   1.000
    H47     H    0.53235   0.00142   0.24191   1.000
    C48     C    0.20807   0.44022   0.19169   1.000
    C49     C    0.70851   0.43976   0.19108   1.000
    C50     C    0.15574   0.39342   0.18612   1.000
    C51     C    0.65611   0.39303   0.18500   1.000
    C52     C    0.14603   0.33663   0.24085   1.000
    C53     C    0.64606   0.33660   0.24070   1.000
    C54     C    0.18764   0.32602   0.30266   1.000
    C55     C    0.68741   0.32615   0.30284   1.000
    C56     C    0.23890   0.37509   0.31019   1.000
    C57     C    0.73873   0.37519   0.31019   1.000
    C58     C    0.24888   0.43090   0.25395   1.000
    C59     C    0.74900   0.43067   0.25369   1.000
    C60     C    0.18947   0.48027   0.80440   1.000
    C61     C    0.68985   0.48108   0.80432   1.000
    C62     C    0.13424   0.43875   0.79840   1.000
    C63     C    0.63465   0.43949   0.79845   1.000
    C64     C    0.12775   0.38343   0.74110   1.000
    C65     C    0.62822   0.38393   0.74130   1.000
    C66     C    0.17651   0.36785   0.68974   1.000
    C67     C    0.67702   0.36830   0.69005   1.000
    C68     C    0.23242   0.40902   0.69589   1.000
    C69     C    0.73292   0.40945   0.69634   1.000
    C70     C    0.23802   0.46514   0.75268   1.000
    C71     C    0.73852   0.46570   0.75291   1.000
    C72     C    0.04192   0.55933   0.69133   1.000
    C73     C    0.54177   0.55870   0.69163   1.000
    C74     C    0.09457   0.60559   0.68569   1.000
    C75     C    0.59397   0.60570   0.68579   1.000
    C76     C    0.10476   0.66211   0.74063   1.000
    C77     C    0.60377   0.66249   0.74054   1.000
    C78     C    0.06338   0.67292   0.80275   1.000
    C79     C    0.56250   0.67286   0.80284   1.000
    C80     C    0.01191   0.62414   0.81036   1.000
    C81     C    0.51142   0.62347   0.81065   1.000
    C82     C    0.00142   0.56877   0.75392   1.000
    C83     C    0.50124   0.56787   0.75429   1.000
    C84     C    0.06056   0.51804   0.30508   1.000
    C85     C    0.55989   0.51721   0.30450   1.000
    C86     C    0.11569   0.55980   0.29925   1.000
    C87     C    0.61516   0.55864   0.29851   1.000
    C88     C    0.12217   0.61526   0.24206   1.000
    C89     C    0.62176   0.61394   0.24119   1.000
    C90     C    0.07349   0.63069   0.19058   1.000
    C91     C    0.57302   0.62970   0.18990   1.000
    C92     C    0.01753   0.58964   0.19697   1.000
    C93     C    0.51698   0.58872   0.19623   1.000
    C94     C    0.01194   0.53335   0.25361   1.000
    C95     C    0.51135   0.53246   0.25289   1.000
    C96     C    0.29132   0.93994   0.30762   1.000
    C97     C    0.79202   0.94005   0.30766   1.000
    C98     C    0.34357   0.89307   0.31334   1.000
    C99     C    0.84454   0.89350   0.31250   1.000
    C100    C    0.35353   0.83661   0.25831   1.000
    C101    C    0.85421   0.83706   0.25735   1.000
    C102    C    0.31229   0.82654   0.19604   1.000
    C103    C    0.81233   0.82630   0.19582   1.000
    C104    C    0.26119   0.87584   0.18835   1.000
    C105    C    0.76077   0.87507   0.18912   1.000
    C106    C    0.25094   0.93123   0.24486   1.000
    C107    C    0.75095   0.93064   0.24567   1.000
    C108    C    0.31028   0.98034   0.69416   1.000
    C109    C    0.81103   0.98072   0.69491   1.000
    C110    C    0.36547   0.93872   0.69997   1.000
    C111    C    0.86619   0.93905   0.70058   1.000
    C112    C    0.37198   0.88336   0.75721   1.000
    C113    C    0.87273   0.88364   0.75780   1.000
    C114    C    0.32328   0.86794   0.80870   1.000
    C115    C    0.82405   0.86813   0.80930   1.000
    C116    C    0.26749   0.90932   0.80276   1.000
    C117    C    0.76816   0.90930   0.80329   1.000
    C118    C    0.26181   0.96537   0.74597   1.000
    C119    C    0.76252   0.96553   0.74665   1.000
    C120    C    0.45769   0.05850   0.80792   1.000
    C121    C    0.95767   0.05906   0.80670   1.000
    C122    C    0.40516   0.10498   0.81341   1.000
    C123    C    0.90563   0.10625   0.81272   1.000
    C124    C    0.39528   0.16169   0.75850   1.000
    C125    C    0.89579   0.16277   0.75765   1.000
    C126    C    0.43686   0.17254   0.69668   1.000
    C127    C    0.93695   0.17275   0.69516   1.000
    C128    C    0.48828   0.12369   0.68923   1.000
    C129    C    0.98789   0.12319   0.68730   1.000
    C130    C    0.49843   0.06805   0.74556   1.000
    C131    C    0.99798   0.06774   0.74381   1.000
    C132    C    0.44046   0.01739   0.19509   1.000
    C133    C    0.93912   0.01766   0.19420   1.000
    C134    C    0.38518   0.05876   0.20108   1.000
    C135    C    0.88397   0.05938   0.19974   1.000
    C136    C    0.37856   0.11395   0.25846   1.000
    C137    C    0.87745   0.11513   0.25660   1.000
    C138    C    0.42728   0.12954   0.30982   1.000
    C139    C    0.92617   0.13094   0.30789   1.000
    C140    C    0.48337   0.08882   0.30339   1.000
    C141    C    0.98209   0.08978   0.30180   1.000
    C142    C    0.48907   0.03271   0.24659   1.000
    C143    C    0.98768   0.03317   0.24562   1.000
loop_
    _geom_bond_atom_site_label_1
    _geom_bond_atom_site_label_2
    _geom_bond_distance
    _geom_bond_site_symmetry_2
    _ccdc_geom_bond_type
    H1     C51       1.08133      .   S
    H0     C50       1.08892      .   S
    H43    C135      1.08905      .   S
    H42    C134      1.08908      .   S
    C51    C49       1.40303      .   S
    C51    C53       1.39914      .   S
    C50    C48       1.40195      .   S
    C50    C52       1.39122      .   S
    C104   C102      1.41084      .   S
    C104   C106      1.39675      .   S
    C105   C103      1.41146      .   S
    C105   C107      1.39796      .   S
    C91    C93       1.41247      .   S
    C91    C89       1.40053      .   S
    C90    C92       1.41179      .   S
    C90    C88       1.40053      .   S
    C49    C59       1.39595      .   S
    C48    C58       1.39613      .   S
    C133   C135      1.40247      .   S
    C133   C143      1.39798      .   S
    C132   C134      1.40216      .   S
    C132   C142      1.39899      .   S
    C103   C101      1.40445      .   S
    C102   C100      1.40377      .   S
    C93    C95       1.39685      .   S
    C92    C94       1.39690      .   S
    C135   C137      1.39500      .   S
    C134   C136      1.39451      .   S
    H3     C53       1.09039      .   S
    H2     C52       1.09034      .   S
    H21    C89       1.09086      .   S
    H20    C88       1.09081      .   S
    H28    C106      1.08822      .   S
    H29    C107      1.08829      .   S
    C53    C55       1.40426      .   S
    C52    C54       1.40398      .   S
    C89    C87       1.39482      .   S
    H46    C143      1.08766  1_455   S
    H47    C142      1.08772      .   S
    C88    C86       1.39497      .   S
    C106   C96       1.39573      .   S
    C143   C141      1.39585      .   S
    C107   C97       1.39632      .   S
    C142   C140      1.39706      .   S
    C95    H22       1.08774      .   S
    C95    C85       1.39900      .   S
    C94    H23       1.08778  1_455   S
    C94    C84       1.39893      .   S
    C59    H5        1.08818      .   S
    C59    C57       1.39733      .   S
    C58    H4        1.08826      .   S
    C58    C56       1.39741      .   S
    C137   H45       1.09081      .   S
    C137   C139      1.40033      .   S
    C101   H27       1.09037      .   S
    C101   C99       1.39188      .   S
    C100   H26       1.09039      .   S
    C100   C98       1.39158      .   S
    C136   H44       1.09080      .   S
    C136   C138      1.40036      .   S
    C87    C85       1.40219      .   S
    C87    H19       1.08903      .   S
    C86    C84       1.40236      .   S
    C86    H18       1.08916      .   S
    C141   C139      1.41195      .   S
    C54    C56       1.41070      .   S
    C55    C57       1.41111      .   S
    C140   C138      1.41164      .   S
    C96    C98       1.40184      .   S
    C97    C99       1.40217      .   S
    C99    H25       1.08900      .   S
    C98    H24       1.08891      .   S
    H12    C74       1.08906      .   S
    H13    C75       1.08912      .   S
    H30    C110      1.08902      .   S
    H31    C111      1.08899      .   S
    C74    C72       1.40192      .   S
    C74    C76       1.39222      .   S
    C75    C73       1.40213      .   S
    C75    C77       1.39218      .   S
    C129   C127      1.41125      .   S
    C129   C131      1.39680      .   S
    C128   C126      1.41088      .   S
    C128   C130      1.39728      .   S
    C66    C68       1.41186      .   S
    C66    C64       1.39996      .   S
    C67    C69       1.41176      .   S
    C67    C65       1.39955      .   S
    C72    C82       1.39558      .   S
    C73    C83       1.39622      .   S
    C108   C110      1.40247      .   S
    C108   C118      1.39797      .   S
    C109   C111      1.40233      .   S
    C109   C119      1.39852      .   S
    C127   C125      1.40427      .   S
    C68    C70       1.39713      .   S
    C69    C71       1.39607      .   S
    C126   C124      1.40309      .   S
    C110   C112      1.39466      .   S
    C111   C113      1.39504      .   S
    H15    C77       1.09040      .   S
    H14    C76       1.09040      .   S
    H8     C64       1.09075      .   S
    H9     C65       1.09070      .   S
    H40    C131      1.08816  1_455   S
    H41    C130      1.08812      .   S
    C77    C79       1.40418      .   S
    C76    C78       1.40429      .   S
    C64    C62       1.39501      .   S
    C65    C63       1.39614      .   S
    H34    C118      1.08762      .   S
    H35    C119      1.08761      .   S
    C131   C121      1.39533      .   S
    C130   C120      1.39586      .   S
    C118   C116      1.39613      .   S
    C119   C117      1.39635      .   S
    C70    H10       1.08763      .   S
    C70    C60       1.39890      .   S
    C71    H11       1.08764      .   S
    C71    C61       1.39830      .   S
    C82    H17       1.08799  1_455   S
    C82    C80       1.39667      .   S
    C83    H16       1.08823      .   S
    C83    C81       1.39751      .   S
    C112   H32       1.09077      .   S
    C112   C114      1.39967      .   S
    C125   H39       1.09039      .   S
    C125   C123      1.39228      .   S
    C113   H33       1.09085      .   S
    C113   C115      1.39984      .   S
    C124   H38       1.09052      .   S
    C124   C122      1.39305      .   S
    C62    C60       1.40244      .   S
    C62    H6        1.08967      .   S
    C63    C61       1.40237      .   S
    C63    H7        1.08903      .   S
    C78    C80       1.41100      .   S
    C116   C114      1.41141      .   S
    C79    C81       1.41128      .   S
    C117   C115      1.41151      .   S
    C121   C123      1.40181      .   S
    C120   C122      1.40208      .   S
    C123   H37       1.08905      .   S
    C122   H36       1.08904      .   S
