# CIF file generated by openbabel 2.4.90, see http://openbabel.sf.net
data_I
_chemical_name_common ''
_cell_length_a 21.562
_cell_length_b 17.666
_cell_length_c 17.196
_cell_angle_alpha 89.986
_cell_angle_beta 89.955
_cell_angle_gamma 90.011
_space_group_name_H-M_alt 'P 1'
_space_group_name_Hall 'P 1'
loop_
    _symmetry_equiv_pos_as_xyz
    x,y,z
loop_
    _atom_site_label
    _atom_site_type_symbol
    _atom_site_fract_x
    _atom_site_fract_y
    _atom_site_fract_z
    _atom_site_occupancy
    C0      C    0.80192   0.03989   0.63355   1.000
    C1      C    0.33032   0.80455   0.86670   1.000
    C2      C    0.83106   0.80484   0.86740   1.000
    C3      C    0.21394   0.89228   0.85512   1.000
    C4      C    0.21962   0.50134   0.13351   1.000
    C5      C    0.72061   0.50063   0.13269   1.000
    C6      C    0.17122   0.26343   0.35881   1.000
    C7      C    0.67109   0.26370   0.35941   1.000
    C8      C    0.28324   0.37051   0.37714   1.000
    C9      C    0.78314   0.37092   0.37704   1.000
    C10     C    0.19849   0.53925   0.86601   1.000
    C11     C    0.69884   0.54026   0.86566   1.000
    C12     C    0.16932   0.30461   0.63167   1.000
    C13     C    0.67015   0.30496   0.63201   1.000
    C14     C    0.28620   0.39155   0.64386   1.000
    C15     C    0.78657   0.39194   0.64430   1.000
    C16     C    0.02928   0.49846   0.63328   1.000
    C17     C    0.52986   0.49752   0.63355   1.000
    C18     C    0.07975   0.73570   0.85877   1.000
    C19     C    0.57873   0.73577   0.85887   1.000
    C20     C    0.46739   0.62751   0.87801   1.000
    C21     C    0.96763   0.62837   0.87741   1.000
    C22     C    0.05171   0.45860   0.36630   1.000
    C23     C    0.55084   0.45823   0.36612   1.000
    C24     C    0.08049   0.69368   0.13217   1.000
    C25     C    0.58043   0.69289   0.13179   1.000
    C26     C    0.46307   0.60680   0.14476   1.000
    C27     C    0.96375   0.60745   0.14524   1.000
    C28     C    0.27921   0.00055   0.36612   1.000
    C29     C    0.78047   0.00104   0.36610   1.000
    C30     C    0.32868   0.76422   0.13953   1.000
    C31     C    0.82878   0.76390   0.13926   1.000
    C32     C    0.21694   0.87151   0.12135   1.000
    C33     C    0.71586   0.87071   0.12271   1.000
    C34     C    0.30125   0.03911   0.63247   1.000
    C35     C    0.71447   0.89174   0.85533   1.000
    C36     C    0.46984   0.99752   0.86612   1.000
    C37     C    0.96993   0.99817   0.86500   1.000
    C38     C    0.42041   0.23495   0.64021   1.000
    C39     C    0.92063   0.23531   0.63880   1.000
    C40     C    0.03205   0.12699   0.62001   1.000
    C41     C    0.53288   0.12822   0.62251   1.000
    C42     C    0.44937   0.95827   0.13362   1.000
    C43     C    0.94822   0.95824   0.13315   1.000
    C44     C    0.41996   0.19270   0.36784   1.000
    C45     C    0.91918   0.19422   0.36594   1.000
    C46     C    0.03590   0.10776   0.35329   1.000
    C47     C    0.53717   0.10668   0.35516   1.000
