# CIF file generated by openbabel 2.4.90, see http://openbabel.sf.net
data_I
_chemical_name_common ''
_cell_length_a 21.562
_cell_length_b 17.666
_cell_length_c 17.196
_cell_angle_alpha 89.986
_cell_angle_beta 89.955
_cell_angle_gamma 90.011
_space_group_name_H-M_alt 'P 1'
_space_group_name_Hall 'P 1'
loop_
    _symmetry_equiv_pos_as_xyz
    x,y,z
loop_
    _atom_site_label
    _atom_site_type_symbol
    _atom_site_fract_x
    _atom_site_fract_y
    _atom_site_fract_z
    _atom_site_occupancy
    Zr0     Zr   0.08008   0.21251   0.48413   1.000
    Zr1     Zr   0.58114   0.21260   0.48648   1.000
    Zr2     Zr   0.28778   0.65982   0.91964   1.000
    Zr3     Zr   0.78879   0.65990   0.91986   1.000
    Zr4     Zr   0.33615   0.60276   0.10058   1.000
    Zr5     Zr   0.83693   0.60279   0.10067   1.000
    Zr6     Zr   0.16275   0.60361   0.01639   1.000
    Zr7     Zr   0.66387   0.60374   0.01621   1.000
    Zr8     Zr   0.17018   0.78695   0.98578   1.000
    Zr9     Zr   0.66945   0.78665   0.98590   1.000
    Zr10    Zr   0.46164   0.33755   0.41985   1.000
    Zr11    Zr   0.96176   0.33766   0.41908   1.000
    Zr12    Zr   0.41345   0.39658   0.60035   1.000
    Zr13    Zr   0.91432   0.39685   0.60015   1.000
    Zr14    Zr   0.08584   0.39418   0.51650   1.000
    Zr15    Zr   0.58669   0.39416   0.51650   1.000
    Zr16    Zr   0.41898   0.71277   0.01349   1.000
    Zr17    Zr   0.91995   0.71280   0.01359   1.000
    Zr18    Zr   0.21081   0.15960   0.57948   1.000
    Zr19    Zr   0.71219   0.15982   0.58003   1.000
    Zr20    Zr   0.16309   0.10264   0.39693   1.000
    Zr21    Zr   0.66410   0.10267   0.39919   1.000
    Zr22    Zr   0.33618   0.10338   0.48317   1.000
    Zr23    Zr   0.83727   0.10400   0.48300   1.000
    Zr24    Zr   0.33054   0.28486   0.51332   1.000
    Zr25    Zr   0.82975   0.28687   0.51330   1.000
    Zr26    Zr   0.03919   0.83822   0.08000   1.000
    Zr27    Zr   0.53860   0.83762   0.07989   1.000
    Zr28    Zr   0.08574   0.89671   0.89708   1.000
    Zr29    Zr   0.58640   0.89646   0.89713   1.000
    Zr30    Zr   0.41340   0.89403   0.98333   1.000
    Zr31    Zr   0.91433   0.89443   0.98295   1.000
    Zr32    Zr   0.00530   0.29486   0.54915   1.000
    Zr33    Zr   0.50596   0.29513   0.54974   1.000
    Zr34    Zr   0.11408   0.09426   0.54177   1.000
    Zr35    Zr   0.61474   0.09442   0.54419   1.000
    Zr36    Zr   0.24373   0.70236   0.04988   1.000
    Zr37    Zr   0.74418   0.70301   0.04954   1.000
    Zr38    Zr   0.13513   0.90511   0.04154   1.000
    Zr39    Zr   0.63449   0.90440   0.04276   1.000
    Zr40    Zr   0.49443   0.79562   0.95010   1.000
    Zr41    Zr   0.99503   0.79549   0.95012   1.000
    Zr42    Zr   0.38504   0.59495   0.95520   1.000
    Zr43    Zr   0.88601   0.59480   0.95540   1.000
    Zr44    Zr   0.25547   0.20224   0.44964   1.000
    Zr45    Zr   0.75592   0.20234   0.44935   1.000
    Zr46    Zr   0.36472   0.40328   0.45546   1.000
    Zr47    Zr   0.86509   0.40431   0.45562   1.000
    Zr48    Zr   0.21962   0.50134   0.13351   1.000
    Zr49    Zr   0.72061   0.50063   0.13269   1.000
    Zr50    Zr   0.17122   0.26343   0.35881   1.000
    Zr51    Zr   0.67109   0.26370   0.35941   1.000
    Zr52    Zr   0.28324   0.37051   0.37714   1.000
    Zr53    Zr   0.78314   0.37092   0.37704   1.000
    Zr54    Zr   0.19849   0.53925   0.86601   1.000
    Zr55    Zr   0.69884   0.54026   0.86566   1.000
    Zr56    Zr   0.16932   0.30461   0.63167   1.000
    Zr57    Zr   0.67015   0.30496   0.63201   1.000
    Zr58    Zr   0.28620   0.39155   0.64386   1.000
    Zr59    Zr   0.78657   0.39194   0.64430   1.000
    Zr60    Zr   0.02928   0.49846   0.63328   1.000
    Zr61    Zr   0.52986   0.49752   0.63355   1.000
    Zr62    Zr   0.07975   0.73570   0.85877   1.000
    Zr63    Zr   0.57873   0.73577   0.85887   1.000
    Zr64    Zr   0.46739   0.62751   0.87801   1.000
    Zr65    Zr   0.96763   0.62837   0.87741   1.000
    Zr66    Zr   0.05171   0.45860   0.36630   1.000
    Zr67    Zr   0.55084   0.45823   0.36612   1.000
    Zr68    Zr   0.08049   0.69368   0.13217   1.000
    Zr69    Zr   0.58043   0.69289   0.13179   1.000
    Zr70    Zr   0.46307   0.60680   0.14476   1.000
    Zr71    Zr   0.96375   0.60745   0.14524   1.000
    Zr72    Zr   0.27921   0.00055   0.36612   1.000
    Zr73    Zr   0.78047   0.00104   0.36610   1.000
    Zr74    Zr   0.32868   0.76422   0.13953   1.000
    Zr75    Zr   0.82878   0.76390   0.13926   1.000
    Zr76    Zr   0.21694   0.87151   0.12135   1.000
    Zr77    Zr   0.71586   0.87071   0.12271   1.000
    Zr78    Zr   0.30125   0.03911   0.63247   1.000
    Zr79    Zr   0.80192   0.03989   0.63355   1.000
    Zr80    Zr   0.33032   0.80455   0.86670   1.000
    Zr81    Zr   0.83106   0.80484   0.86740   1.000
    Zr82    Zr   0.21394   0.89228   0.85512   1.000
    Zr83    Zr   0.71447   0.89174   0.85533   1.000
    Zr84    Zr   0.46984   0.99752   0.86612   1.000
    Zr85    Zr   0.96993   0.99817   0.86500   1.000
    Zr86    Zr   0.42041   0.23495   0.64021   1.000
    Zr87    Zr   0.92063   0.23531   0.63880   1.000
    Zr88    Zr   0.03205   0.12699   0.62001   1.000
    Zr89    Zr   0.53288   0.12822   0.62251   1.000
    Zr90    Zr   0.44937   0.95827   0.13362   1.000
    Zr91    Zr   0.94822   0.95824   0.13315   1.000
    Zr92    Zr   0.41996   0.19270   0.36784   1.000
    Zr93    Zr   0.91918   0.19422   0.36594   1.000
    Zr94    Zr   0.03590   0.10776   0.35329   1.000
    Zr95    Zr   0.53717   0.10668   0.35516   1.000
    Zr96    Zr   0.27441   0.52775   0.13001   1.000
    Zr97    Zr   0.77540   0.52721   0.13006   1.000
    Zr98    Zr   0.17332   0.52205   0.09249   1.000
    Zr99    Zr   0.67478   0.52103   0.09065   1.000
    Zr100   Zr   0.19704   0.19862   0.34987   1.000
    Zr101   Zr   0.69646   0.19875   0.35002   1.000
    Zr102   Zr   0.12846   0.27851   0.40699   1.000
    Zr103   Zr   0.62912   0.27901   0.40863   1.000
    Zr104   Zr   0.31984   0.42491   0.38991   1.000
    Zr105   Zr   0.81909   0.42578   0.39022   1.000
    Zr106   Zr   0.28037   0.30920   0.41717   1.000
    Zr107   Zr   0.78106   0.30918   0.41653   1.000
    Zr108   Zr   0.24786   0.57865   0.86000   1.000
    Zr109   Zr   0.74874   0.57878   0.86046   1.000
    Zr110   Zr   0.15708   0.54463   0.91903   1.000
    Zr111   Zr   0.65691   0.54662   0.91786   1.000
    Zr112   Zr   0.18932   0.24014   0.65353   1.000
    Zr113   Zr   0.69069   0.24074   0.65376   1.000
    Zr114   Zr   0.14161   0.31533   0.56700   1.000
    Zr115   Zr   0.64230   0.31535   0.56736   1.000
    Zr116   Zr   0.33765   0.42532   0.65750   1.000
    Zr117   Zr   0.83868   0.42348   0.65932   1.000
    Zr118   Zr   0.27687   0.34359   0.59023   1.000
    Zr119   Zr   0.77620   0.34606   0.58903   1.000
    Zr120   Zr   0.02414   0.31202   0.50000   1.000
    Zr121   Zr   0.52465   0.31204   0.50047   1.000
    Zr122   Zr   0.14431   0.12595   0.50765   1.000
    Zr123   Zr   0.64518   0.12558   0.50969   1.000
    Zr124   Zr   0.47473   0.47205   0.62999   1.000
    Zr125   Zr   0.97372   0.47429   0.62900   1.000
    Zr126   Zr   0.07513   0.47576   0.59260   1.000
    Zr127   Zr   0.57604   0.47582   0.59283   1.000
    Zr128   Zr   0.05332   0.80011   0.84984   1.000
    Zr129   Zr   0.55227   0.80024   0.85003   1.000
    Zr130   Zr   0.12261   0.72124   0.90692   1.000
    Zr131   Zr   0.62174   0.72142   0.90683   1.000
    Zr132   Zr   0.42975   0.57388   0.88961   1.000
    Zr133   Zr   0.93099   0.57394   0.88990   1.000
    Zr134   Zr   0.47161   0.68753   0.91981   1.000
    Zr135   Zr   0.97051   0.68938   0.91786   1.000
    Zr136   Zr   0.50163   0.41858   0.36014   1.000
    Zr137   Zr   0.00000   0.41872   0.36006   1.000
    Zr138   Zr   0.09298   0.45328   0.41945   1.000
    Zr139   Zr   0.59209   0.45315   0.41928   1.000
    Zr140   Zr   0.06121   0.75840   0.15429   1.000
    Zr141   Zr   0.56128   0.75764   0.15389   1.000
    Zr142   Zr   0.10711   0.68261   0.06680   1.000
    Zr143   Zr   0.60752   0.68178   0.06672   1.000
    Zr144   Zr   0.41178   0.57217   0.15729   1.000
    Zr145   Zr   0.91191   0.57489   0.15983   1.000
    Zr146   Zr   0.47208   0.65643   0.09266   1.000
    Zr147   Zr   0.97344   0.65456   0.09087   1.000
    Zr148   Zr   0.22497   0.68610   0.00048   1.000
    Zr149   Zr   0.72550   0.68669   0.00000   1.000
    Zr150   Zr   0.10488   0.87337   0.00781   1.000
    Zr151   Zr   0.60478   0.87285   0.00807   1.000
    Zr152   Zr   0.22401   0.02572   0.36998   1.000
    Zr153   Zr   0.72558   0.02717   0.36990   1.000
    Zr154   Zr   0.32533   0.02195   0.40701   1.000
    Zr155   Zr   0.82677   0.02198   0.40703   1.000
    Zr156   Zr   0.30407   0.69890   0.14970   1.000
    Zr157   Zr   0.80288   0.69908   0.14768   1.000
    Zr158   Zr   0.37003   0.78008   0.08968   1.000
    Zr159   Zr   0.87157   0.77904   0.09110   1.000
    Zr160   Zr   0.18161   0.92669   0.10707   1.000
    Zr161   Zr   0.67984   0.92553   0.10970   1.000
    Zr162   Zr   0.21849   0.80905   0.08299   1.000
    Zr163   Zr   0.71771   0.80893   0.08330   1.000
    Zr164   Zr   0.25141   0.07774   0.63719   1.000
    Zr165   Zr   0.75258   0.07928   0.63969   1.000
    Zr166   Zr   0.34325   0.04496   0.58026   1.000
    Zr167   Zr   0.84321   0.04540   0.58043   1.000
    Zr168   Zr   0.30916   0.74048   0.84536   1.000
    Zr169   Zr   0.81053   0.74058   0.84587   1.000
    Zr170   Zr   0.35912   0.81470   0.93069   1.000
    Zr171   Zr   0.85906   0.81537   0.93194   1.000
    Zr172   Zr   0.16203   0.92436   0.84013   1.000
    Zr173   Zr   0.66247   0.92359   0.84000   1.000
    Zr174   Zr   0.22409   0.84638   0.91043   1.000
    Zr175   Zr   0.72446   0.84570   0.91052   1.000
    Zr176   Zr   0.47546   0.81201   0.99946   1.000
    Zr177   Zr   0.97623   0.81231   0.99935   1.000
    Zr178   Zr   0.35486   0.62626   0.99013   1.000
    Zr179   Zr   0.85580   0.62597   0.99032   1.000
    Zr180   Zr   0.02489   0.97199   0.86680   1.000
    Zr181   Zr   0.52511   0.97253   0.86982   1.000
    Zr182   Zr   0.42378   0.97558   0.90690   1.000
    Zr183   Zr   0.92453   0.97736   0.90756   1.000
    Zr184   Zr   0.44533   0.30013   0.64979   1.000
    Zr185   Zr   0.94690   0.29990   0.64720   1.000
    Zr186   Zr   0.37882   0.21899   0.59077   1.000
    Zr187   Zr   0.87775   0.22040   0.59077   1.000
    Zr188   Zr   0.06837   0.07235   0.60721   1.000
    Zr189   Zr   0.56890   0.07335   0.60943   1.000
    Zr190   Zr   0.02940   0.18816   0.57973   1.000
    Zr191   Zr   0.53100   0.18998   0.58304   1.000
    Zr192   Zr   0.99736   0.91851   0.13943   1.000
    Zr193   Zr   0.49846   0.91844   0.13975   1.000
    Zr194   Zr   0.40806   0.95319   0.08052   1.000
    Zr195   Zr   0.90695   0.95298   0.08003   1.000
    Zr196   Zr   0.44016   0.25706   0.34000   1.000
    Zr197   Zr   0.93874   0.25884   0.34373   1.000
    Zr198   Zr   0.39202   0.18209   0.43242   1.000
    Zr199   Zr   0.89236   0.18331   0.43120   1.000
    Zr200   Zr   0.08753   0.07444   0.33948   1.000
    Zr201   Zr   0.58908   0.07450   0.34020   1.000
    Zr202   Zr   0.02643   0.15586   0.40673   1.000
    Zr203   Zr   0.52748   0.15337   0.40991   1.000
    Zr204   Zr   0.27418   0.18578   0.49903   1.000
    Zr205   Zr   0.77468   0.18600   0.49870   1.000
    Zr206   Zr   0.39472   0.37185   0.49029   1.000
    Zr207   Zr   0.89515   0.37276   0.49001   1.000
    O208    O    0.23435   0.69423   0.02518   1.000
    O209    O    0.25637   0.67296   0.96006   1.000
    O210    O    0.12001   0.88924   0.02468   1.000
    O211    O    0.07204   0.85580   0.04391   1.000
    O212    O    0.61963   0.88863   0.02542   1.000
    O213    O    0.57169   0.85524   0.04398   1.000
    O214    O    0.39451   0.74642   0.05159   1.000
    O215    O    0.44553   0.68460   0.05308   1.000
    O216    O    0.44530   0.70015   0.96665   1.000
    O217    O    0.94669   0.68368   0.05223   1.000
    O218    O    0.89576   0.74592   0.05235   1.000
    O219    O    0.94523   0.70109   0.96573   1.000
    O220    O    0.63569   0.64276   0.04147   1.000
    O221    O    0.66932   0.56239   0.05343   1.000
    O222    O    0.66039   0.57518   0.96704   1.000
    O223    O    0.13493   0.64311   0.04160   1.000
    O224    O    0.16803   0.56283   0.05444   1.000
    O225    O    0.15991   0.57412   0.96771   1.000
    O226    O    0.73484   0.69485   0.02477   1.000
    O227    O    0.59398   0.68734   0.09926   1.000
    O228    O    0.09380   0.68815   0.09949   1.000
    O229    O    0.51853   0.87803   0.10982   1.000
    O230    O    0.54994   0.79763   0.11689   1.000
    O231    O    0.01828   0.87837   0.10972   1.000
    O232    O    0.05020   0.79831   0.11715   1.000
    O233    O    0.92759   0.95561   0.10659   1.000
    O234    O    0.91064   0.92370   0.03149   1.000
    O235    O    0.42872   0.95573   0.10707   1.000
    O236    O    0.41073   0.92361   0.03193   1.000
    O237    O    0.21772   0.84028   0.10217   1.000
    O238    O    0.19434   0.79800   0.03439   1.000
    O239    O    0.71679   0.83982   0.10301   1.000
    O240    O    0.69358   0.79779   0.03460   1.000
    O241    O    0.34936   0.77215   0.11461   1.000
    O242    O    0.69769   0.51083   0.11167   1.000
    O243    O    0.96859   0.63101   0.11806   1.000
    O244    O    0.85018   0.77147   0.11518   1.000
    O245    O    0.19647   0.51170   0.11300   1.000
    O246    O    0.46757   0.63161   0.11871   1.000
    O247    O    0.30528   0.56525   0.11530   1.000
    O248    O    0.32011   0.65083   0.12514   1.000
    O249    O    0.37396   0.58746   0.12894   1.000
    O250    O    0.80616   0.56500   0.11537   1.000
    O251    O    0.81990   0.65093   0.12418   1.000
    O252    O    0.87442   0.58884   0.13025   1.000
    O253    O    0.19927   0.89910   0.11421   1.000
    O254    O    0.69785   0.89812   0.11621   1.000
    O255    O    0.24701   0.51455   0.13176   1.000
    O256    O    0.74800   0.51392   0.13138   1.000
    O257    O    0.57085   0.72526   0.14284   1.000
    O258    O    0.07085   0.72604   0.14323   1.000
    O259    O    0.97279   0.93838   0.13629   1.000
    O260    O    0.47392   0.93835   0.13669   1.000
    O261    O    0.81583   0.73149   0.14347   1.000
    O262    O    0.31638   0.73156   0.14462   1.000
    O263    O    0.43742   0.58948   0.15103   1.000
    O264    O    0.93783   0.59117   0.15254   1.000
    O265    O    0.06172   0.09110   0.34639   1.000
    O266    O    0.12531   0.08854   0.36821   1.000
    O267    O    0.43006   0.22488   0.35392   1.000
    O268    O    0.45090   0.29731   0.37993   1.000
    O269    O    0.56312   0.09059   0.34768   1.000
    O270    O    0.62659   0.08858   0.36970   1.000
    O271    O    0.92896   0.22653   0.35484   1.000
    O272    O    0.95025   0.29825   0.38141   1.000
    O273    O    0.18413   0.23102   0.35434   1.000
    O274    O    0.18006   0.15063   0.37340   1.000
    O275    O    0.68377   0.23123   0.35472   1.000
    O276    O    0.68028   0.15071   0.37461   1.000
    O277    O    0.03117   0.13181   0.38001   1.000
    O278    O    0.53233   0.13002   0.38254   1.000
    O279    O    0.14984   0.27097   0.38290   1.000
    O280    O    0.65010   0.27136   0.38402   1.000
    O281    O    0.02586   0.43866   0.36318   1.000
    O282    O    0.98088   0.37819   0.38957   1.000
    O283    O    0.52624   0.43841   0.36313   1.000
    O284    O    0.48163   0.37807   0.39000   1.000
    O285    O    0.90577   0.18877   0.39857   1.000
    O286    O    0.75303   0.01411   0.36800   1.000
    O287    O    0.80362   0.01151   0.38657   1.000
    O288    O    0.57147   0.45569   0.39270   1.000
    O289    O    0.25161   0.01314   0.36805   1.000
    O290    O    0.30227   0.01125   0.38657   1.000
    O291    O    0.07235   0.45594   0.39288   1.000
    O292    O    0.40599   0.18739   0.40013   1.000
    O293    O    0.69484   0.06492   0.38455   1.000
    O294    O    0.19355   0.06418   0.38346   1.000
    O295    O    0.80112   0.39835   0.38363   1.000
    O296    O    0.78210   0.34005   0.39679   1.000
    O297    O    0.30154   0.39771   0.38353   1.000
    O298    O    0.28181   0.33986   0.39716   1.000
    O299    O    0.05325   0.18419   0.44543   1.000
    O300    O    0.10427   0.24551   0.44556   1.000
    O301    O    0.33076   0.06267   0.44509   1.000
    O302    O    0.83202   0.06299   0.44502   1.000
    O303    O    0.60513   0.24581   0.44756   1.000
    O304    O    0.55431   0.18299   0.44820   1.000
    O305    O    0.80540   0.29802   0.46492   1.000
    O306    O    0.30546   0.29703   0.46525   1.000
    O307    O    0.92846   0.35521   0.45455   1.000
    O308    O    0.99295   0.32484   0.45954   1.000
    O309    O    0.58939   0.42366   0.46789   1.000
    O310    O    0.08941   0.42373   0.46797   1.000
    O311    O    0.42818   0.35470   0.45507   1.000
    O312    O    0.86481   0.14366   0.45710   1.000
    O313    O    0.36410   0.14274   0.45780   1.000
    O314    O    0.76530   0.19417   0.47403   1.000
    O315    O    0.26483   0.19401   0.47434   1.000
    O316    O    0.37972   0.38757   0.47287   1.000
    O317    O    0.88012   0.38854   0.47282   1.000
    O318    O    0.84024   0.07470   0.53172   1.000
    O319    O    0.30518   0.14458   0.49110   1.000
    O320    O    0.33971   0.07417   0.53172   1.000
    O321    O    0.05474   0.20033   0.53193   1.000
    O322    O    0.55607   0.20129   0.53476   1.000
    O323    O    0.74343   0.17291   0.53937   1.000
    O324    O    0.01472   0.30344   0.52458   1.000
    O325    O    0.55567   0.35310   0.50848   1.000
    O326    O    0.51530   0.30358   0.52511   1.000
    O327    O    0.12919   0.11010   0.52471   1.000
    O328    O    0.17756   0.14277   0.54357   1.000
    O329    O    0.62996   0.11000   0.52694   1.000
    O330    O    0.67868   0.14270   0.54486   1.000
    O331    O    0.80297   0.31647   0.55117   1.000
    O332    O    0.85375   0.25364   0.55204   1.000
    O333    O    0.30371   0.31423   0.55178   1.000
    O334    O    0.35468   0.25193   0.55205   1.000
    O335    O    0.11372   0.35475   0.54175   1.000
    O336    O    0.08049   0.43497   0.55455   1.000
    O337    O    0.61450   0.35475   0.54193   1.000
    O338    O    0.58137   0.43499   0.55467   1.000
    O339    O    0.15546   0.30997   0.59934   1.000
    O340    O    0.65623   0.31015   0.59969   1.000
    O341    O    0.23111   0.11867   0.60834   1.000
    O342    O    0.20007   0.19987   0.61651   1.000
    O343    O    0.03072   0.15757   0.59987   1.000
    O344    O    0.73238   0.11955   0.60986   1.000
    O345    O    0.70144   0.20028   0.61690   1.000
    O346    O    0.32225   0.04203   0.60637   1.000
    O347    O    0.82257   0.04265   0.60699   1.000
    O348    O    0.53194   0.15910   0.60278   1.000
    O349    O    0.78138   0.36900   0.61667   1.000
    O350    O    0.28154   0.36757   0.61705   1.000
    O351    O    0.89919   0.22785   0.61479   1.000
    O352    O    0.39962   0.22697   0.61549   1.000
    O353    O    0.05221   0.48711   0.61294   1.000
    O354    O    0.55295   0.48667   0.61319   1.000
    O355    O    0.94402   0.43557   0.61457   1.000
    O356    O    0.93061   0.34837   0.62368   1.000
    O357    O    0.87650   0.41017   0.62974   1.000
    O358    O    0.44409   0.43432   0.61517   1.000
    O359    O    0.42939   0.34835   0.62507   1.000
    O360    O    0.37555   0.41095   0.62893   1.000
    O361    O    0.05021   0.09967   0.61361   1.000
    O362    O    0.55089   0.10079   0.61597   1.000
    O363    O    0.00150   0.48637   0.63114   1.000
    O364    O    0.50230   0.48478   0.63177   1.000
    O365    O    0.17932   0.27238   0.64260   1.000
    O366    O    0.68042   0.27285   0.64289   1.000
    O367    O    0.27633   0.05843   0.63483   1.000
    O368    O    0.77725   0.05959   0.63662   1.000
    O369    O    0.93376   0.26760   0.64300   1.000
    O370    O    0.43287   0.26754   0.64500   1.000
    O371    O    0.31192   0.40843   0.65068   1.000
    O372    O    0.81262   0.40771   0.65181   1.000
    O373    O    0.68847   0.90767   0.84767   1.000
    O374    O    0.62444   0.91003   0.86857   1.000
    O375    O    0.18799   0.90832   0.84763   1.000
    O376    O    0.12388   0.91054   0.86861   1.000
    O377    O    0.31974   0.77252   0.85603   1.000
    O378    O    0.29847   0.70015   0.88250   1.000
    O379    O    0.82079   0.77271   0.85664   1.000
    O380    O    0.79966   0.70024   0.88287   1.000
    O381    O    0.06653   0.76790   0.85431   1.000
    O382    O    0.06953   0.84841   0.87346   1.000
    O383    O    0.56550   0.76800   0.85445   1.000
    O384    O    0.56934   0.84835   0.87358   1.000
    O385    O    0.21901   0.86933   0.88278   1.000
    O386    O    0.71946   0.86872   0.88293   1.000
    O387    O    0.10118   0.72847   0.88285   1.000
    O388    O    0.60023   0.72859   0.88285   1.000
    O389    O    0.22317   0.55895   0.86301   1.000
    O390    O    0.26782   0.61923   0.88982   1.000
    O391    O    0.72379   0.55952   0.86306   1.000
    O392    O    0.76876   0.61934   0.89016   1.000
    O393    O    0.99741   0.98508   0.86590   1.000
    O394    O    0.94723   0.98776   0.88628   1.000
    O395    O    0.67787   0.54344   0.89176   1.000
    O396    O    0.17778   0.54194   0.89252   1.000
    O397    O    0.49748   0.98503   0.86797   1.000
    O398    O    0.44681   0.98655   0.88651   1.000
    O399    O    0.34472   0.80962   0.89870   1.000
    O400    O    0.05531   0.93435   0.88194   1.000
    O401    O    0.84506   0.81011   0.89967   1.000
    O402    O    0.55576   0.93449   0.88348   1.000
    O403    O    0.94931   0.60115   0.88366   1.000
    O404    O    0.96907   0.65887   0.89764   1.000
    O405    O    0.44857   0.60069   0.88381   1.000
    O406    O    0.46950   0.65752   0.89891   1.000
    O407    O    0.64559   0.75403   0.94637   1.000
    O408    O    0.41859   0.93480   0.94512   1.000
    O409    O    0.14640   0.75410   0.94635   1.000
    O410    O    0.91943   0.93589   0.94526   1.000
    O411    O    0.19713   0.81667   0.94811   1.000
    O412    O    0.69696   0.81617   0.94821   1.000
    O413    O    0.32132   0.64304   0.95489   1.000
    O414    O    0.82229   0.64294   0.95509   1.000
    O415    O    0.75715   0.67330   0.95993   1.000
    O416    O    0.38626   0.85437   0.95701   1.000
    O417    O    0.88669   0.85490   0.95745   1.000
    O418    O    0.48495   0.80382   0.97478   1.000
    O419    O    0.98563   0.80390   0.97474   1.000
    O420    O    0.36995   0.61060   0.97267   1.000
    O421    O    0.87090   0.61038   0.97286   1.000
    O422    O    0.94528   0.85337   0.99115   1.000
    O423    O    0.44443   0.85302   0.99140   1.000
    O424    O    0.05211   0.26227   0.49207   1.000
    O425    O    0.05499   0.35310   0.50825   1.000
    O426    O    0.55290   0.26232   0.49347   1.000
    O427    O    0.49314   0.32480   0.46016   1.000
    O428    O    0.11220   0.16923   0.49589   1.000
    O429    O    0.15370   0.11429   0.45229   1.000
    O430    O    0.61316   0.16909   0.49809   1.000
    O431    O    0.65464   0.11412   0.45444   1.000
    O432    O    0.19386   0.64485   0.00844   1.000
    O433    O    0.19757   0.73653   0.99313   1.000
    O434    O    0.69469   0.64522   0.00811   1.000
    O435    O    0.69748   0.73667   0.99295   1.000
    O436    O    0.13753   0.83016   0.99680   1.000
    O437    O    0.09531   0.88504   0.95245   1.000
    O438    O    0.63712   0.82975   0.99699   1.000
    O439    O    0.59559   0.88465   0.95260   1.000
    O440    O    0.44722   0.76239   0.00647   1.000
    O441    O    0.50703   0.82482   0.03968   1.000
    O442    O    0.94809   0.76256   0.00647   1.000
    O443    O    0.00771   0.82527   0.03968   1.000
    O444    O    0.34550   0.61451   0.04536   1.000
    O445    O    0.38692   0.66951   0.00181   1.000
    O446    O    0.84636   0.61438   0.04549   1.000
    O447    O    0.88787   0.66939   0.00196   1.000
    O448    O    0.24250   0.17269   0.53926   1.000
    O449    O    0.30236   0.23532   0.50618   1.000
    O450    O    0.80597   0.14500   0.49085   1.000
    O451    O    0.80221   0.23644   0.50600   1.000
    O452    O    0.40409   0.38422   0.54532   1.000
    O453    O    0.36263   0.32836   0.50181   1.000
    O454    O    0.90473   0.38481   0.54508   1.000
    O455    O    0.86245   0.32982   0.50166   1.000
    N456    N    0.07653   0.57157   0.25810   1.000
    O457    O    0.03359   0.58506   0.21460   1.000
    O458    O    0.06633   0.52994   0.29690   1.000
    O459    O    0.07676   0.61688   0.20974   1.000
    N460    N    0.43858   0.11276   0.76385   1.000
    O461    O    0.43361   0.15825   0.71615   1.000
    O462    O    0.45117   0.07039   0.80044   1.000
    O463    O    0.47458   0.11936   0.70986   1.000
    N464    N    0.31044   0.88587   0.26348   1.000
    O465    O    0.31546   0.84063   0.21563   1.000
    O466    O    0.29785   0.92806   0.30017   1.000
    O467    O    0.27475   0.87978   0.20916   1.000
    N468    N    0.57601   0.57049   0.25734   1.000
    O469    O    0.56569   0.52910   0.29633   1.000
    O470    O    0.57637   0.61589   0.20909   1.000
    O471    O    0.53302   0.58412   0.21392   1.000
    N472    N    0.82708   0.92731   0.74190   1.000
    O473    O    0.82732   0.88190   0.79012   1.000
    O474    O    0.78420   0.91391   0.78560   1.000
    O475    O    0.81678   0.96881   0.70306   1.000
    N476    N    0.42435   0.07059   0.24224   1.000
    O477    O    0.46731   0.08417   0.28576   1.000
    O478    O    0.43463   0.02921   0.20330   1.000
    O479    O    0.42398   0.11586   0.29054   1.000
    N480    N    0.18916   0.38584   0.23563   1.000
    O481    O    0.22512   0.37932   0.28965   1.000
    O482    O    0.18430   0.34028   0.28318   1.000
    O483    O    0.20150   0.42831   0.19911   1.000
    N484    N    0.67388   0.42760   0.75738   1.000
    O485    O    0.67373   0.38211   0.70921   1.000
    O486    O    0.71681   0.41415   0.71385   1.000
    O487    O    0.68411   0.46913   0.79619   1.000
    N488    N    0.92310   0.07137   0.24083   1.000
    O489    O    0.92289   0.11698   0.28887   1.000
    O490    O    0.96605   0.08507   0.28419   1.000
    O491    O    0.93339   0.02966   0.20225   1.000
    N492    N    0.32635   0.92707   0.74127   1.000
    O493    O    0.32658   0.88166   0.78948   1.000
    O494    O    0.31606   0.96840   0.70229   1.000
    O495    O    0.28354   0.91394   0.78510   1.000
    N496    N    0.68931   0.38563   0.23527   1.000
    O497    O    0.72512   0.37934   0.28944   1.000
    O498    O    0.68428   0.34028   0.28320   1.000
    O499    O    0.70193   0.42791   0.19858   1.000
    N500    N    0.06132   0.61334   0.73542   1.000
    O501    O    0.04846   0.57112   0.69886   1.000
    O502    O    0.02555   0.61980   0.78965   1.000
    O503    O    0.06644   0.65883   0.78309   1.000
    N504    N    0.93869   0.11333   0.76265   1.000
    O505    O    0.97433   0.11921   0.70815   1.000
    O506    O    0.95124   0.07097   0.79925   1.000
    O507    O    0.93374   0.15868   0.71482   1.000
    N508    N    0.81092   0.88591   0.26322   1.000
    O509    O    0.81574   0.84050   0.21538   1.000
    O510    O    0.77462   0.87940   0.20957   1.000
    O511    O    0.79858   0.92823   0.30005   1.000
    N512    N    0.17341   0.42701   0.75720   1.000
    O513    O    0.17316   0.38162   0.70895   1.000
    O514    O    0.21636   0.41365   0.71354   1.000
    O515    O    0.18370   0.46839   0.79620   1.000
    N516    N    0.56075   0.61315   0.73557   1.000
    O517    O    0.54828   0.57063   0.69908   1.000
    O518    O    0.52508   0.61932   0.78995   1.000
    O519    O    0.56568   0.65873   0.78321   1.000
loop_
    _geom_bond_atom_site_label_1
    _geom_bond_atom_site_label_2
    _geom_bond_distance
    _geom_bond_site_symmetry_2
    _ccdc_geom_bond_type
    Zr148  O208      0.49205      .   S
    Zr36   O208      0.49205      .   S
    Zr148  O209      0.99751  1_554   S
    Zr2    O209      0.99751      .   S
    Zr150  O210      0.51884      .   S
    Zr38   O210      0.51884      .   S
    Zr150  O211      0.99114      .   S
    Zr26   O211      0.99114      .   S
    Zr151  O212      0.51900      .   S
    Zr39   O212      0.51900      .   S
    Zr151  O213      0.99316      .   S
    Zr27   O213      0.99316      .   S
    Zr16   O214      1.02999      .   S
    Zr158  O214      1.02999      .   S
    Zr16   O215      1.01947      .   S
    Zr146  O215      1.01947      .   S
    Zr16   O216      1.00985  1_554   S
    Zr134  O216      1.00985      .   S
    Zr17   O217      1.01945      .   S
    Zr147  O217      1.01945      .   S
    Zr17   O218      1.02871      .   S
    Zr159  O218      1.02871      .   S
    Zr17   O219      1.00838  1_554   S
    Zr135  O219      1.00838      .   S
    Zr7    O220      1.01623      .   S
    Zr143  O220      1.01623      .   S
    Zr7    O221      0.97838      .   S
    Zr99   O221      0.97838      .   S
    Zr7    O222      0.98770  1_554   S
    Zr111  O222      0.98770      .   S
    Zr6    O223      1.01713      .   S
    Zr142  O223      1.01713      .   S
    Zr6    O224      0.97978      .   S
    Zr98   O224      0.97978      .   S
    Zr6    O225      0.98801  1_554   S
    Zr110  O225      0.98801      .   S
    Zr37   O226      0.49283      .   S
    Zr149  O226      0.49283      .   S
    Zr143  O227      0.63850      .   S
    Zr69   O227      0.63850      .   S
    Zr142  O228      0.63842      .   S
    Zr68   O228      0.63842      .   S
    Zr27   O229      0.98066      .   S
    Zr193  O229      0.98066      .   S
    Zr27   O230      0.98175      .   S
    Zr141  O230      0.98175      .   S
    Zr26   O231      0.98350      .   S
    Zr192  O231      0.98350  1_655   S
    Zr26   O232      0.98060      .   S
    Zr140  O232      0.98060      .   S
    Zr195  O233      0.63952      .   S
    Zr91   O233      0.63952      .   S
    Zr195  O234      0.98519      .   S
    Zr31   O234      0.98519  1_556   S
    Zr194  O235      0.63960      .   S
    Zr90   O235      0.63960      .   S
    Zr194  O236      0.98732      .   S
    Zr30   O236      0.98732  1_556   S
    Zr162  O237      0.64310      .   S
    Zr76   O237      0.64310      .   S
    Zr162  O238      1.00434      .   S
    Zr8    O238      1.00434  1_556   S
    Zr163  O239      0.64274      .   S
    Zr77   O239      0.64274      .   S
    Zr163  O240      1.00570      .   S
    Zr9    O240      1.00570  1_556   S
    Zr158  O241      0.63377      .   S
    Zr74   O241      0.63377      .   S
    Zr99   O242      0.63837      .   S
    Zr49   O242      0.63837      .   S
    Zr147  O243      0.63436      .   S
    Zr71   O243      0.63436      .   S
    Zr159  O244      0.63392      .   S
    Zr75   O244      0.63392      .   S
    Zr98   O245      0.63818      .   S
    Zr48   O245      0.63818      .   S
    Zr146  O246      0.63410      .   S
    Zr70   O246      0.63410      .   S
    Zr4    O247      0.97230      .   S
    Zr96   O247      0.97230      .   S
    Zr4    O248      1.00959      .   S
    Zr156  O248      1.00959      .   S
    Zr4    O249      0.98808      .   S
    Zr144  O249      0.98808      .   S
    Zr5    O250      0.97415      .   S
    Zr97   O250      0.97415      .   S
    Zr5    O251      1.01072      .   S
    Zr157  O251      1.01072      .   S
    Zr5    O252      0.98676      .   S
    Zr145  O252      0.98676      .   S
    Zr160  O253      0.63073      .   S
    Zr76   O253      0.63073      .   S
    Zr161  O254      0.63081      .   S
    Zr77   O254      0.63081      .   S
    Zr96   O255      0.63584      .   S
    Zr48   O255      0.63584      .   S
    Zr97   O256      0.63602      .   S
    Zr49   O256      0.63602      .   S
    Zr69   O257      0.63707      .   S
    Zr141  O257      0.63707      .   S
    Zr68   O258      0.63735      .   S
    Zr140  O258      0.63735      .   S
    Zr91   O259      0.63791      .   S
    Zr192  O259      0.63791      .   S
    Zr90   O260      0.63777      .   S
    Zr193  O260      0.63777      .   S
    Zr75   O261      0.64104      .   S
    Zr157  O261      0.64104      .   S
    Zr74   O262      0.64092      .   S
    Zr156  O262      0.64092      .   S
    Zr70   O263      0.64086      .   S
    Zr144  O263      0.64086      .   S
    Zr71   O264      0.64077      .   S
    Zr145  O264      0.64077      .   S
    Zr200  O265      0.64073      .   S
    Zr94   O265      0.64073      .   S
    Zr200  O266      0.98502      .   S
    Zr20   O266      0.98502      .   S
    Zr196  O267      0.65398      .   S
    Zr92   O267      0.65398      .   S
    Zr196  O268      1.01537      .   S
    Zr10   O268      1.01537      .   S
    Zr201  O269      0.64069      .   S
    Zr95   O269      0.64069      .   S
    Zr201  O270      0.98692      .   S
    Zr21   O270      0.98692      .   S
    Zr197  O271      0.63757      .   S
    Zr93   O271      0.63757      .   S
    Zr197  O272      0.98313      .   S
    Zr11   O272      0.98313      .   S
    Zr100  O273      0.64120      .   S
    Zr50   O273      0.64120      .   S
    Zr100  O274      1.00785      .   S
    Zr20   O274      1.00785      .   S
    Zr101  O275      0.64070      .   S
    Zr51   O275      0.64070      .   S
    Zr101  O276      1.01008      .   S
    Zr21   O276      1.01008      .   S
    Zr94   O277      0.63413      .   S
    Zr202  O277      0.63413      .   S
    Zr95   O278      0.63455      .   S
    Zr203  O278      0.63455      .   S
    Zr50   O279      0.63372      .   S
    Zr102  O279      0.63372      .   S
    Zr51   O280      0.63394      .   S
    Zr103  O280      0.63394      .   S
    Zr137  O281      0.66160      .   S
    Zr66   O281      0.66160      .   S
    Zr137  O282      0.96927  1_455   S
    Zr11   O282      0.96927      .   S
    Zr136  O283      0.63779      .   S
    Zr67   O283      0.63779      .   S
    Zr136  O284      0.98035      .   S
    Zr10   O284      0.98035      .   S
    Zr93   O285      0.63831      .   S
    Zr199  O285      0.63831      .   S
    Zr73   O286      0.63608      .   S
    Zr153  O286      0.63608      .   S
    Zr73   O287      0.63829      .   S
    Zr155  O287      0.63829      .   S
    Zr67   O288      0.63954      .   S
    Zr139  O288      0.63954      .   S
    Zr72   O289      0.63610      .   S
    Zr152  O289      0.63610      .   S
    Zr72   O290      0.63790      .   S
    Zr154  O290      0.63790      .   S
    Zr66   O291      0.63979      .   S
    Zr138  O291      0.63979      .   S
    Zr92   O292      0.63836      .   S
    Zr198  O292      0.63836      .   S
    Zr153  O293      0.97335      .   S
    Zr21   O293      0.97335      .   S
    Zr152  O294      0.97299      .   S
    Zr20   O294      0.97299      .   S
    Zr53   O295      0.63080      .   S
    Zr105  O295      0.63080      .   S
    Zr53   O296      0.64276      .   S
    Zr107  O296      0.64276      .   S
    Zr52   O297      0.63137      .   S
    Zr104  O297      0.63137      .   S
    Zr52   O298      0.64237      .   S
    Zr106  O298      0.64237      .   S
    Zr202  O299      1.01413      .   S
    Zr0    O299      1.01413      .   S
    Zr102  O300      1.02515      .   S
    Zr0    O300      1.02515      .   S
    Zr154  O301      0.97987      .   S
    Zr22   O301      0.97987      .   S
    Zr155  O302      0.98219      .   S
    Zr23   O302      0.98219      .   S
    Zr103  O303      1.02898      .   S
    Zr1    O303      1.02898      .   S
    Zr203  O304      1.02100      .   S
    Zr1    O304      1.02100      .   S
    Zr107  O305      1.00366      .   S
    Zr25   O305      1.00366      .   S
    Zr106  O306      1.01135      .   S
    Zr24   O306      1.01135      .   S
    Zr11   O307      0.99160      .   S
    Zr207  O307      0.99160      .   S
    Zr11   O308      0.99415      .   S
    Zr120  O308      0.99415  1_455   S
    Zr139  O309      0.98656      .   S
    Zr15   O309      0.98656      .   S
    Zr138  O310      0.98711      .   S
    Zr14   O310      0.98711      .   S
    Zr10   O311      0.98920      .   S
    Zr206  O311      0.98920      .   S
    Zr199  O312      1.02035      .   S
    Zr23   O312      1.02035      .   S
    Zr198  O313      1.01755      .   S
    Zr22   O313      1.01755      .   S
    Zr45   O314      0.49179      .   S
    Zr205  O314      0.49179      .   S
    Zr44   O315      0.49220      .   S
    Zr204  O315      0.49220      .   S
    Zr46   O316      0.52108      .   S
    Zr206  O316      0.52108      .   S
    Zr47   O317      0.51986      .   S
    Zr207  O317      0.51986      .   S
    Zr23   O318      0.98675      .   S
    Zr167  O318      0.98675      .   S
    Zr22   O319      0.99756      .   S
    Zr204  O319      0.99756      .   S
    Zr22   O320      0.98434      .   S
    Zr166  O320      0.98434      .   S
    Zr0    O321      1.00977      .   S
    Zr190  O321      1.00977      .   S
    Zr1    O322      1.01027      .   S
    Zr191  O322      1.01027      .   S
    Zr205  O323      0.99775      .   S
    Zr19   O323      0.99775      .   S
    Zr120  O324      0.49260      .   S
    Zr32   O324      0.49260      .   S
    Zr121  O325      0.99630      .   S
    Zr15   O325      0.99630      .   S
    Zr121  O326      0.49214      .   S
    Zr33   O326      0.49214      .   S
    Zr122  O327      0.52001      .   S
    Zr34   O327      0.52001      .   S
    Zr122  O328      0.99220      .   S
    Zr18   O328      0.99220      .   S
    Zr123  O329      0.52079      .   S
    Zr35   O329      0.52079      .   S
    Zr123  O330      0.98983      .   S
    Zr19   O330      0.98983      .   S
    Zr25   O331      1.01506      .   S
    Zr119  O331      1.01506      .   S
    Zr25   O332      1.02794      .   S
    Zr187  O332      1.02794      .   S
    Zr24   O333      1.02020      .   S
    Zr118  O333      1.02020      .   S
    Zr24   O334      1.02632      .   S
    Zr186  O334      1.02632      .   S
    Zr14   O335      1.01754      .   S
    Zr114  O335      1.01754      .   S
    Zr14   O336      0.98023      .   S
    Zr126  O336      0.98023      .   S
    Zr15   O337      1.01773      .   S
    Zr115  O337      1.01773      .   S
    Zr15   O338      0.98198      .   S
    Zr127  O338      0.98198      .   S
    Zr114  O339      0.63847      .   S
    Zr56   O339      0.63847      .   S
    Zr115  O340      0.63859      .   S
    Zr57   O340      0.63859      .   S
    Zr18   O341      0.98021      .   S
    Zr164  O341      0.98021      .   S
    Zr18   O342      0.98245      .   S
    Zr112  O342      0.98245      .   S
    Zr190  O343      0.64234      .   S
    Zr88   O343      0.64234      .   S
    Zr19   O344      0.97932      .   S
    Zr165  O344      0.97932      .   S
    Zr19   O345      0.98312      .   S
    Zr113  O345      0.98312      .   S
    Zr166  O346      0.63944      .   S
    Zr78   O346      0.63944      .   S
    Zr167  O347      0.63933      .   S
    Zr79   O347      0.63933      .   S
    Zr191  O348      0.64266      .   S
    Zr89   O348      0.64266      .   S
    Zr119  O349      0.63459      .   S
    Zr59   O349      0.63459      .   S
    Zr118  O350      0.63430      .   S
    Zr58   O350      0.63430      .   S
    Zr187  O351      0.63392      .   S
    Zr87   O351      0.63392      .   S
    Zr186  O352      0.63402      .   S
    Zr86   O352      0.63402      .   S
    Zr126  O353      0.63771      .   S
    Zr60   O353      0.63771      .   S
    Zr127  O354      0.63795      .   S
    Zr61   O354      0.63795      .   S
    Zr13   O355      0.96941      .   S
    Zr125  O355      0.96941      .   S
    Zr13   O356      1.01029      .   S
    Zr185  O356      1.01029      .   S
    Zr13   O357      0.98922      .   S
    Zr117  O357      0.98922      .   S
    Zr12   O358      0.97263      .   S
    Zr124  O358      0.97263      .   S
    Zr12   O359      1.01233      .   S
    Zr184  O359      1.01233      .   S
    Zr12   O360      0.98653      .   S
    Zr116  O360      0.98653      .   S
    Zr188  O361      0.63117      .   S
    Zr88   O361      0.63117      .   S
    Zr189  O362      0.63119      .   S
    Zr89   O362      0.63119      .   S
    Zr125  O363      0.63695  1_655   S
    Zr60   O363      0.63695      .   S
    Zr124  O364      0.63623      .   S
    Zr61   O364      0.63623      .   S
    Zr56   O365      0.63732      .   S
    Zr112  O365      0.63732      .   S
    Zr57   O366      0.63710      .   S
    Zr113  O366      0.63710      .   S
    Zr78   O367      0.63788      .   S
    Zr164  O367      0.63788      .   S
    Zr79   O368      0.63789      .   S
    Zr165  O368      0.63789      .   S
    Zr87   O369      0.64103      .   S
    Zr185  O369      0.64103      .   S
    Zr86   O370      0.64060      .   S
    Zr184  O370      0.64060      .   S
    Zr58   O371      0.64069      .   S
    Zr116  O371      0.64069      .   S
    Zr59   O372      0.64033      .   S
    Zr117  O372      0.64033      .   S
    Zr173  O373      0.64107      .   S
    Zr83   O373      0.64107      .   S
    Zr173  O374      0.98511      .   S
    Zr29   O374      0.98511      .   S
    Zr172  O375      0.64054      .   S
    Zr82   O375      0.64054      .   S
    Zr172  O376      0.98755      .   S
    Zr28   O376      0.98755      .   S
    Zr168  O377      0.63717      .   S
    Zr80   O377      0.63717      .   S
    Zr168  O378      0.98396      .   S
    Zr2    O378      0.98396      .   S
    Zr169  O379      0.63684      .   S
    Zr81   O379      0.63684      .   S
    Zr169  O380      0.98330      .   S
    Zr3    O380      0.98330      .   S
    Zr128  O381      0.64094      .   S
    Zr62   O381      0.64094      .   S
    Zr128  O382      1.00774      .   S
    Zr28   O382      1.00774      .   S
    Zr129  O383      0.64148      .   S
    Zr63   O383      0.64148      .   S
    Zr129  O384      1.01095      .   S
    Zr29   O384      1.01095      .   S
    Zr82   O385      0.63442      .   S
    Zr174  O385      0.63442      .   S
    Zr83   O386      0.63416      .   S
    Zr175  O386      0.63416      .   S
    Zr62   O387      0.63369      .   S
    Zr130  O387      0.63369      .   S
    Zr63   O388      0.63359      .   S
    Zr131  O388      0.63359      .   S
    Zr108  O389      0.63793      .   S
    Zr54   O389      0.63793      .   S
    Zr108  O390      0.98117      .   S
    Zr2    O390      0.98117      .   S
    Zr109  O391      0.63807      .   S
    Zr55   O391      0.63807      .   S
    Zr109  O392      0.98033      .   S
    Zr3    O392      0.98033      .   S
    Zr85   O393      0.63631      .   S
    Zr180  O393      0.63631  1_455   S
    Zr85   O394      0.63782      .   S
    Zr183  O394      0.63782      .   S
    Zr55   O395      0.63925      .   S
    Zr111  O395      0.63925      .   S
    Zr54   O396      0.63958      .   S
    Zr110  O396      0.63958      .   S
    Zr84   O397      0.63629      .   S
    Zr181  O397      0.63629      .   S
    Zr84   O398      0.63779      .   S
    Zr182  O398      0.63779      .   S
    Zr80   O399      0.63827      .   S
    Zr170  O399      0.63827      .   S
    Zr180  O400      0.96984      .   S
    Zr28   O400      0.96984      .   S
    Zr81   O401      0.63871      .   S
    Zr171  O401      0.63871      .   S
    Zr181  O402      0.97142      .   S
    Zr29   O402      0.97142      .   S
    Zr65   O403      0.63135      .   S
    Zr133  O403      0.63135      .   S
    Zr65   O404      0.64221      .   S
    Zr135  O404      0.64221      .   S
    Zr64   O405      0.63158      .   S
    Zr132  O405      0.63158      .   S
    Zr64   O406      0.64219      .   S
    Zr134  O406      0.64219      .   S
    Zr131  O407      1.02928      .   S
    Zr9    O407      1.02928      .   S
    Zr182  O408      0.98120      .   S
    Zr30   O408      0.98120      .   S
    Zr130  O409      1.02971      .   S
    Zr8    O409      1.02971      .   S
    Zr183  O410      0.98411      .   S
    Zr31   O410      0.98411      .   S
    Zr174  O411      1.01594      .   S
    Zr8    O411      1.01594      .   S
    Zr175  O412      1.02123      .   S
    Zr9    O412      1.02123      .   S
    Zr2    O413      0.98938      .   S
    Zr178  O413      0.98938      .   S
    Zr3    O414      0.98965      .   S
    Zr179  O414      0.98965      .   S
    Zr3    O415      0.99783      .   S
    Zr149  O415      0.99783  1_554   S
    Zr170  O416      1.01926      .   S
    Zr30   O416      1.01926      .   S
    Zr171  O417      1.01761      .   S
    Zr31   O417      1.01761      .   S
    Zr40   O418      0.49277      .   S
    Zr176  O418      0.49277      .   S
    Zr41   O419      0.49219      .   S
    Zr177  O419      0.49219      .   S
    Zr42   O420      0.52198      .   S
    Zr178  O420      0.52198      .   S
    Zr43   O421      0.52151      .   S
    Zr179  O421      0.52151      .   S
    Zr31   O422      0.99583      .   S
    Zr177  O422      0.99583      .   S
    Zr30   O423      0.99601      .   S
    Zr176  O423      0.99601      .   S
    Zr120  O424      1.07474      .   S
    Zr0    O424      1.07474      .   S
    Zr120  O425      0.99457      .   S
    Zr14   O425      0.99457      .   S
    Zr121  O426      1.07561      .   S
    Zr1    O426      1.07561      .   S
    Zr121  O427      0.99677      .   S
    Zr10   O427      0.99677      .   S
    Zr122  O428      1.05140      .   S
    Zr0    O428      1.05140      .   S
    Zr122  O429      0.99470      .   S
    Zr20   O429      0.99470      .   S
    Zr123  O430      1.05249      .   S
    Zr1    O430      1.05249      .   S
    Zr123  O431      0.99248      .   S
    Zr21   O431      0.99248      .   S
    Zr148  O432      0.99956      .   S
    Zr6    O432      0.99956      .   S
    Zr148  O433      1.07645  1_554   S
    Zr8    O433      1.07645      .   S
    Zr149  O434      0.99870      .   S
    Zr7    O434      0.99870      .   S
    Zr149  O435      1.07685  1_554   S
    Zr9    O435      1.07685      .   S
    Zr150  O436      1.05553  1_554   S
    Zr8    O436      1.05553      .   S
    Zr150  O437      0.99588  1_554   S
    Zr28   O437      0.99588      .   S
    Zr151  O438      1.04993  1_554   S
    Zr9    O438      1.04993      .   S
    Zr151  O439      0.99638  1_554   S
    Zr29   O439      0.99638      .   S
    Zr176  O440      1.07395  1_556   S
    Zr16   O440      1.07395      .   S
    Zr176  O441      0.99674  1_556   S
    Zr27   O441      0.99674      .   S
    Zr177  O442      1.07489  1_556   S
    Zr17   O442      1.07489      .   S
    Zr177  O443      0.99735  1_656   S
    Zr26   O443      0.99735      .   S
    Zr178  O444      0.99258  1_556   S
    Zr4    O444      0.99258      .   S
    Zr178  O445      1.04992  1_556   S
    Zr16   O445      1.04992      .   S
    Zr179  O446      0.99152  1_556   S
    Zr5    O446      0.99152      .   S
    Zr179  O447      1.05199  1_556   S
    Zr17   O447      1.05199      .   S
    Zr204  O448      0.99891      .   S
    Zr18   O448      0.99891      .   S
    Zr204  O449      1.07249      .   S
    Zr24   O449      1.07249      .   S
    Zr205  O450      0.99911      .   S
    Zr23   O450      0.99911      .   S
    Zr205  O451      1.07803      .   S
    Zr25   O451      1.07803      .   S
    Zr206  O452      0.99214      .   S
    Zr12   O452      0.99214      .   S
    Zr206  O453      1.05257      .   S
    Zr24   O453      1.05257      .   S
    Zr207  O454      0.99254      .   S
    Zr13   O454      0.99254      .   S
    Zr207  O455      1.05467      .   S
    Zr25   O455      1.05467      .   S
    N456   O457      1.21445      .   S
    Zr71   O457      1.96204  1_655   S
    N456   O458      1.01666      .   S
    Zr66   O458      1.76376      .   S
    N456   O459      1.15415      .   S
    Zr68   O459      1.90409      .   S
    N460   O461      1.15332      .   S
    Zr86   O461      1.90314      .   S
    N460   O462      1.01488      .   S
    Zr84   O462      1.75926  1_565   S
    N460   O463      1.21532      .   S
    Zr89   O463      1.96423      .   S
    N464   O465      1.15234      .   S
    Zr74   O465      1.90164      .   S
    N464   O466      1.01354      .   S
    Zr72   O466      1.75719  1_545   S
    N464   O467      1.21537      .   S
    Zr76   O467      1.96428      .   S
    N468   O469      1.01629      .   S
    Zr67   O469      1.76320      .   S
    N468   O470      1.15389      .   S
    Zr69   O470      1.90370      .   S
    N468   O471      1.21496      .   S
    Zr70   O471      1.96281      .   S
    N472   O473      1.15373      .   S
    Zr81   O473      1.90388      .   S
    N472   O474      1.21436      .   S
    Zr83   O474      1.96178      .   S
    N472   O475      1.01626      .   S
    Zr79   O475      1.76308  1_545   S
    N476   O477      1.21522      .   S
    Zr95   O477      1.96325      .   S
    N476   O478      1.01596      .   S
    Zr90   O478      1.76284  1_565   S
    N476   O479      1.15303      .   S
    Zr92   O479      1.90216      .   S
    N480   O481      1.21584      .   S
    Zr52   O481      1.96507      .   S
    N480   O482      1.15191      .   S
    Zr50   O482      1.90067      .   S
    N480   O483      1.01362      .   S
    Zr48   O483      1.75732      .   S
    N484   O485      1.15426      .   S
    Zr57   O485      1.90443      .   S
    N484   O486      1.21364      .   S
    Zr59   O486      1.96067      .   S
    N484   O487      1.01625      .   S
    Zr55   O487      1.76296      .   S
    N488   O489      1.15411      .   S
    Zr93   O489      1.90413      .   S
    N488   O490      1.21365      .   S
    Zr94   O490      1.96059  1_455   S
    N488   O491      1.01599      .   S
    Zr91   O491      1.76248  1_565   S
    N492   O493      1.15361      .   S
    Zr80   O493      1.90386      .   S
    N492   O494      1.01562      .   S
    Zr78   O494      1.76181  1_545   S
    N492   O495      1.21374      .   S
    Zr82   O495      1.96070      .   S
    N496   O497      1.21555      .   S
    Zr53   O497      1.96444      .   S
    N496   O498      1.15428      .   S
    Zr51   O498      1.90441      .   S
    N496   O499      1.01472      .   S
    Zr49   O499      1.75914      .   S
    N500   O501      1.01438      .   S
    Zr60   O501      1.75838      .   S
    N500   O502      1.21521      .   S
    Zr65   O502      1.96388  1_655   S
    N500   O503      1.15334      .   S
    Zr62   O503      1.90303      .   S
    N504   O505      1.21587      .   S
    Zr88   O505      1.96523  1_455   S
    N504   O506      1.01457      .   S
    Zr85   O506      1.75923  1_565   S
    N504   O507      1.15317      .   S
    Zr87   O507      1.90289      .   S
    N508   O509      1.15377      .   S
    Zr75   O509      1.90378      .   S
    N508   O510      1.21585      .   S
    Zr77   O510      1.96529      .   S
    N508   O511      1.01529      .   S
    Zr73   O511      1.75994  1_545   S
    N512   O513      1.15393      .   S
    Zr56   O513      1.90386      .   S
    N512   O514      1.21491      .   S
    Zr58   O514      1.96290      .   S
    N512   O515      1.01676      .   S
    Zr54   O515      1.76391      .   S
    N516   O517      1.01524      .   S
    Zr61   O517      1.75985      .   S
    N516   O518      1.21525      .   S
    Zr64   O518      1.96423      .   S
    N516   O519      1.15384      .   S
    Zr63   O519      1.90395      .   S
