# CIF file generated by openbabel 2.4.90, see http://openbabel.sf.net
data_I
_chemical_name_common ''
_cell_length_a 18.42
_cell_length_b 18.43
_cell_length_c 18.426
_cell_angle_alpha 60.177
_cell_angle_beta 60.213
_cell_angle_gamma 60.202
_space_group_name_H-M_alt 'P 1'
_space_group_name_Hall 'P 1'
loop_
    _symmetry_equiv_pos_as_xyz
    x,y,z
loop_
    _atom_site_label
    _atom_site_type_symbol
    _atom_site_fract_x
    _atom_site_fract_y
    _atom_site_fract_z
    _atom_site_occupancy
    Zn0     Zn   0.29330   0.11972   0.79316   1.000
    Zn1     Zn   0.11962   0.29333   0.79341   1.000
    Zn2     Zn   0.70669   0.88027   0.20683   1.000
    Zn3     Zn   0.70659   0.70682   0.38029   1.000
    Zn4     Zn   0.70633   0.70609   0.20615   1.000
    Zn5     Zn   0.29340   0.29317   0.61970   1.000
    Zn6     Zn   0.29365   0.29390   0.79385   1.000
    C7      C    0.61130   0.88907   0.38912   1.000
    Zn8     Zn   0.88036   0.70666   0.20658   1.000
    C9      C    0.61091   0.88858   0.11100   1.000
    C10     C    0.11096   0.38855   0.61090   1.000
    C11     C    0.11121   0.38917   0.88904   1.000
    C12     C    0.38868   0.11092   0.61087   1.000
    C13     C    0.38907   0.11142   0.88890   1.000
    C14     C    0.88903   0.61142   0.38901   1.000
    C15     C    0.88878   0.61082   0.11095   1.000
    C16     C    0.61090   0.61099   0.38858   1.000
    C17     C    0.88909   0.88899   0.11128   1.000
    C18     C    0.38908   0.38900   0.61141   1.000
    C19     C    0.11089   0.11100   0.88873   1.000
    O20     O    0.63314   0.80530   0.42870   1.000
    O21     O    0.63380   0.92863   0.30535   1.000
    O22     O    0.63310   0.80484   0.13250   1.000
    O23     O    0.63291   0.92804   0.13371   1.000
    O24     O    0.92868   0.80524   0.13315   1.000
    O25     O    0.19473   0.36640   0.57144   1.000
    O26     O    0.07138   0.36642   0.69474   1.000
    O27     O    0.19498   0.36727   0.86717   1.000
    O28     O    0.07168   0.36689   0.86671   1.000
    O29     O    0.19466   0.07146   0.86635   1.000
    O30     O    0.36685   0.19469   0.57100   1.000
    O31     O    0.36619   0.07137   0.69464   1.000
    O32     O    0.36688   0.19516   0.86743   1.000
    O33     O    0.36708   0.07195   0.86629   1.000
    O34     O    0.07131   0.19475   0.86685   1.000
    O35     O    0.80526   0.63358   0.42855   1.000
    O36     O    0.92860   0.63357   0.30525   1.000
    O37     O    0.80500   0.63272   0.13282   1.000
    O38     O    0.92831   0.63309   0.13329   1.000
    O39     O    0.80532   0.92853   0.13365   1.000
    O40     O    0.74992   0.74986   0.24987   1.000
    O41     O    0.63300   0.63353   0.42806   1.000
    O42     O    0.63298   0.63265   0.30482   1.000
    O43     O    0.25006   0.25013   0.75012   1.000
    O44     O    0.36698   0.36645   0.57193   1.000
    O45     O    0.36701   0.36734   0.69517   1.000
    Og46    Og   0.59216   0.90817   0.40821   1.000
    Og47    Og   0.59180   0.90775   0.09189   1.000
    Og48    Og   0.09185   0.40773   0.59182   1.000
    Og49    Og   0.09207   0.40825   0.90815   1.000
    Og50    Og   0.40783   0.09182   0.59178   1.000
    Og51    Og   0.40818   0.09224   0.90804   1.000
    Og52    Og   0.90814   0.59226   0.40811   1.000
    Og53    Og   0.90791   0.59174   0.09184   1.000
    Og54    Og   0.59180   0.59188   0.40775   1.000
    Og55    Og   0.90819   0.90811   0.09213   1.000
    Og56    Og   0.40819   0.40811   0.59224   1.000
    Og57    Og   0.09179   0.09188   0.90787   1.000
loop_
    _geom_bond_atom_site_label_1
    _geom_bond_atom_site_label_2
    _geom_bond_distance
    _geom_bond_site_symmetry_2
    _ccdc_geom_bond_type
    C15    O37       1.27727      .   S
    C15    O38       1.27722      .   S
    C9     O22       1.27735      .   S
    C9     O23       1.27759      .   S
    C17    O24       1.27717      .   S
    C17    O39       1.27716      .   S
    O22    Zn4       1.97369      .   S
    O37    Zn4       1.97290      .   S
    O24    Zn8       1.97225      .   S
    O38    Zn8       1.97175      .   S
    O39    Zn2       1.97213      .   S
    O23    Zn2       1.97171      .   S
    Zn4    O42       1.97298      .   S
    Zn8    O36       1.97210      .   S
    Zn2    O40       1.96692      .   S
    Zn2    O21       1.97247      .   S
    O40    Zn3       1.96692      .   S
    O42    C16       1.27737      .   S
    O36    C14       1.27723      .   S
    O21    C7        1.27720      .   S
    Zn3    O41       1.97172      .   S
    Zn3    O35       1.97222      .   S
    Zn3    O20       1.97262      .   S
    C16    O41       1.27701      .   S
    C14    O35       1.27720      .   S
    C7     O20       1.27723      .   S
    O30    C12       1.27790      .   S
    O30    Zn5       1.97565      .   S
    O25    C10       1.27700      .   S
    O25    Zn5       1.97224      .   S
    O44    C18       1.27699      .   S
    O44    Zn5       1.97174      .   S
    C12    O31       1.27720      .   S
    C10    O26       1.27836      .   S
    C18    O45       1.27737      .   S
    Zn5    O43       1.96692      .   S
    O31    Zn0       1.97246      .   S
    O26    Zn1       1.97209      .   S
    O45    Zn6       1.97303      .   S
    O43    Zn0       1.96693      .   S
    Zn0    O33       1.97183      .   S
    Zn0    O29       1.97211      .   S
    Zn1    O28       1.97187      .   S
    Zn1    O34       1.97223      .   S
    Zn6    O27       1.97277      .   S
    Zn6    O32       1.97292      .   S
    O33    C13       1.27612      .   S
    O29    C19       1.27718      .   S
    O28    C11       1.27703      .   S
    O34    C19       1.27717      .   S
    O27    C11       1.27728      .   S
    O32    C13       1.27744      .   S
    O40    Zn8       1.96704      .   S
    O40    Zn4       1.96911      .   S
    O43    Zn1       1.96705      .   S
    O43    Zn6       1.96923      .   S
    C7     Og46      0.49861      .   S
    C9     Og47      0.49845      .   S
    C10    Og48      0.49817      .   S
    C11    Og49      0.49860      .   S
    C12    Og50      0.49861      .   S
    C13    Og51      0.49890      .   S
    C14    Og52      0.49834      .   S
    C15    Og53      0.49857      .   S
    C16    Og54      0.49860      .   S
    C17    Og55      0.49855      .   S
    C18    Og56      0.49860      .   S
    C19    Og57      0.49855      .   S
