# CIF file generated by openbabel 2.4.90, see http://openbabel.sf.net
data_I
_chemical_name_common ''
_cell_length_a 18.42
_cell_length_b 18.43
_cell_length_c 18.426
_cell_angle_alpha 60.177
_cell_angle_beta 60.213
_cell_angle_gamma 60.202
_space_group_name_H-M_alt 'P 1'
_space_group_name_Hall 'P 1'
loop_
    _symmetry_equiv_pos_as_xyz
    x,y,z
loop_
    _atom_site_label
    _atom_site_type_symbol
    _atom_site_fract_x
    _atom_site_fract_y
    _atom_site_fract_z
    _atom_site_occupancy
    C0      C    0.61130   0.88907   0.38912   1.000
    C1      C    0.61091   0.88858   0.11100   1.000
    C2      C    0.11096   0.38855   0.61090   1.000
    C3      C    0.11121   0.38917   0.88904   1.000
    C4      C    0.38868   0.11092   0.61087   1.000
    C5      C    0.38907   0.11142   0.88890   1.000
    C6      C    0.88903   0.61142   0.38901   1.000
    C7      C    0.88878   0.61082   0.11095   1.000
    C8      C    0.61090   0.61099   0.38858   1.000
    C9      C    0.88909   0.88899   0.11128   1.000
    C10     C    0.38908   0.38900   0.61141   1.000
    C11     C    0.11089   0.11100   0.88873   1.000
