# CIF file generated by openbabel 2.4.90, see http://openbabel.sf.net
data_I
_chemical_name_common ''
_cell_length_a 18.42
_cell_length_b 18.43
_cell_length_c 18.426
_cell_angle_alpha 60.177
_cell_angle_beta 60.213
_cell_angle_gamma 60.202
_space_group_name_H-M_alt 'P 1'
_space_group_name_Hall 'P 1'
loop_
    _symmetry_equiv_pos_as_xyz
    x,y,z
loop_
    _atom_site_label
    _atom_site_type_symbol
    _atom_site_fract_x
    _atom_site_fract_y
    _atom_site_fract_z
    _atom_site_occupancy
    Zr0     Zr   0.88036   0.70666   0.20658   1.000
    Zr1     Zr   0.29330   0.11972   0.79316   1.000
    Zr2     Zr   0.11962   0.29333   0.79341   1.000
    Zr3     Zr   0.70669   0.88027   0.20683   1.000
    Zr4     Zr   0.70659   0.70682   0.38029   1.000
    Zr5     Zr   0.70633   0.70609   0.20615   1.000
    Zr6     Zr   0.29340   0.29317   0.61970   1.000
    Zr7     Zr   0.29365   0.29390   0.79385   1.000
    Zr8     Zr   0.61130   0.88907   0.38912   1.000
    Zr9     Zr   0.61091   0.88858   0.11100   1.000
    Zr10    Zr   0.11096   0.38855   0.61090   1.000
    Zr11    Zr   0.11121   0.38917   0.88904   1.000
    Zr12    Zr   0.38868   0.11092   0.61087   1.000
    Zr13    Zr   0.38907   0.11142   0.88890   1.000
    Zr14    Zr   0.88903   0.61142   0.38901   1.000
    Zr15    Zr   0.88878   0.61082   0.11095   1.000
    Zr16    Zr   0.61090   0.61099   0.38858   1.000
    Zr17    Zr   0.88909   0.88899   0.11128   1.000
    Zr18    Zr   0.38908   0.38900   0.61141   1.000
    Zr19    Zr   0.11089   0.11100   0.88873   1.000
    Zr20    Zr   0.63314   0.80530   0.42870   1.000
    Zr21    Zr   0.63380   0.92863   0.30535   1.000
    Zr22    Zr   0.63310   0.80484   0.13250   1.000
    Zr23    Zr   0.63291   0.92804   0.13371   1.000
    Zr24    Zr   0.92868   0.80524   0.13315   1.000
    Zr25    Zr   0.19473   0.36640   0.57144   1.000
    Zr26    Zr   0.07138   0.36642   0.69474   1.000
    Zr27    Zr   0.19498   0.36727   0.86717   1.000
    Zr28    Zr   0.07168   0.36689   0.86671   1.000
    Zr29    Zr   0.19466   0.07146   0.86635   1.000
    Zr30    Zr   0.36685   0.19469   0.57100   1.000
    Zr31    Zr   0.36619   0.07137   0.69464   1.000
    Zr32    Zr   0.36688   0.19516   0.86743   1.000
    Zr33    Zr   0.36708   0.07195   0.86629   1.000
    Zr34    Zr   0.07131   0.19475   0.86685   1.000
    Zr35    Zr   0.80526   0.63358   0.42855   1.000
    Zr36    Zr   0.92860   0.63357   0.30525   1.000
    Zr37    Zr   0.80500   0.63272   0.13282   1.000
    Zr38    Zr   0.92831   0.63309   0.13329   1.000
    Zr39    Zr   0.80532   0.92853   0.13365   1.000
    Zr40    Zr   0.74992   0.74986   0.24987   1.000
    Zr41    Zr   0.63300   0.63353   0.42806   1.000
    Zr42    Zr   0.63298   0.63265   0.30482   1.000
    Zr43    Zr   0.25006   0.25013   0.75012   1.000
    Zr44    Zr   0.36698   0.36645   0.57193   1.000
    Zr45    Zr   0.36701   0.36734   0.69517   1.000
    O46     O    0.84689   0.62177   0.12188   1.000
    O47     O    0.90854   0.62196   0.12212   1.000
    O48     O    0.62201   0.84671   0.12175   1.000
    O49     O    0.62191   0.90831   0.12235   1.000
    O50     O    0.90889   0.84712   0.12221   1.000
    O51     O    0.84721   0.90876   0.12247   1.000
    O52     O    0.66972   0.75546   0.16932   1.000
    O53     O    0.75567   0.66940   0.16948   1.000
    O54     O    0.90452   0.75595   0.16986   1.000
    O55     O    0.90434   0.66987   0.16993   1.000
    O56     O    0.75600   0.90440   0.17024   1.000
    O57     O    0.66980   0.90415   0.17027   1.000
    O58     O    0.66965   0.66937   0.25549   1.000
    O59     O    0.90448   0.67011   0.25591   1.000
    O60     O    0.72830   0.81507   0.22835   1.000
    O61     O    0.67024   0.90445   0.25609   1.000
    O62     O    0.72825   0.72834   0.31508   1.000
    O63     O    0.62194   0.62182   0.34670   1.000
    O64     O    0.90881   0.62250   0.34713   1.000
    O65     O    0.62255   0.90885   0.34723   1.000
    O66     O    0.66980   0.67018   0.40417   1.000
    O67     O    0.75592   0.67020   0.40442   1.000
    O68     O    0.66986   0.75606   0.40449   1.000
    O69     O    0.62195   0.62226   0.40832   1.000
    O70     O    0.84714   0.62250   0.40878   1.000
    O71     O    0.62222   0.84719   0.40891   1.000
    O72     O    0.37777   0.15280   0.59093   1.000
    O73     O    0.33013   0.24393   0.59535   1.000
    O74     O    0.15284   0.37748   0.59117   1.000
    O75     O    0.24406   0.32979   0.59557   1.000
    O76     O    0.37803   0.37773   0.59167   1.000
    O77     O    0.33019   0.32981   0.59581   1.000
    O78     O    0.37743   0.09114   0.65275   1.000
    O79     O    0.09117   0.37749   0.65282   1.000
    O80     O    0.37805   0.37817   0.65329   1.000
    O81     O    0.27173   0.27165   0.68491   1.000
    O82     O    0.32974   0.09554   0.74390   1.000
    O83     O    0.09550   0.32988   0.74407   1.000
    O84     O    0.33033   0.33062   0.74451   1.000
    O85     O    0.27168   0.18492   0.77164   1.000
    O86     O    0.33019   0.09584   0.82972   1.000
    O87     O    0.24398   0.09559   0.82975   1.000
    O88     O    0.09565   0.33011   0.83006   1.000
    O89     O    0.09546   0.24404   0.83013   1.000
    O90     O    0.24432   0.33058   0.83051   1.000
    O91     O    0.33026   0.24453   0.83064   1.000
    O92     O    0.37807   0.09168   0.87759   1.000
    O93     O    0.15278   0.09123   0.87754   1.000
    O94     O    0.09144   0.37803   0.87787   1.000
    O95     O    0.09110   0.15287   0.87779   1.000
    O96     O    0.15310   0.37822   0.87810   1.000
    O97     O    0.37797   0.15329   0.87816   1.000
    O98     O    0.81514   0.72826   0.22822   1.000
    O99     O    0.72813   0.72798   0.22801   1.000
    O100    O    0.18484   0.27173   0.77176   1.000
    O101    O    0.27186   0.27201   0.77198   1.000
    N102    N    0.49999   0.99999   0.99999   1.000
    O103    O    0.45886   0.04133   0.95880   1.000
    O104    O    0.54112   0.95866   0.04116   1.000
    N105    N    0.99999   0.99999   0.99997   1.000
    O106    O    0.04112   0.04116   0.95870   1.000
    O107    O    0.95887   0.95883   0.04127   1.000
    N108    N    0.99999   0.50000   0.49989   1.000
    O109    O    0.04114   0.45866   0.54108   1.000
    O110    O    0.95884   0.54133   0.45877   1.000
    N111    N    0.49999   0.49999   0.50000   1.000
    O112    O    0.54112   0.54116   0.45866   1.000
    O113    O    0.45887   0.45883   0.54133   1.000
    N114    N    0.49999   1.00000   0.49999   1.000
    O115    O    0.54129   0.95886   0.45887   1.000
    O116    O    0.45870   0.04113   0.54111   1.000
    N117    N    0.99999   0.50000   0.99999   1.000
    O118    O    0.95874   0.54110   0.04114   1.000
    O119    O    0.04125   0.45889   0.95885   1.000
loop_
    _geom_bond_atom_site_label_1
    _geom_bond_atom_site_label_2
    _geom_bond_distance
    _geom_bond_site_symmetry_2
    _ccdc_geom_bond_type
    Zr15   O46       0.63864      .   S
    Zr37   O46       0.63864      .   S
    Zr15   O47       0.63861      .   S
    Zr38   O47       0.63861      .   S
    Zr9    O48       0.63868      .   S
    Zr22   O48       0.63868      .   S
    Zr9    O49       0.63879      .   S
    Zr23   O49       0.63879      .   S
    Zr17   O50       0.63858      .   S
    Zr24   O50       0.63858      .   S
    Zr17   O51       0.63858      .   S
    Zr39   O51       0.63858      .   S
    Zr22   O52       0.98685      .   S
    Zr5    O52       0.98685      .   S
    Zr37   O53       0.98645      .   S
    Zr5    O53       0.98645      .   S
    Zr24   O54       0.98612      .   S
    Zr0    O54       0.98612      .   S
    Zr38   O55       0.98587      .   S
    Zr0    O55       0.98587      .   S
    Zr39   O56       0.98606      .   S
    Zr3    O56       0.98606      .   S
    Zr23   O57       0.98586      .   S
    Zr3    O57       0.98586      .   S
    Zr5    O58       0.98649      .   S
    Zr42   O58       0.98649      .   S
    Zr0    O59       0.98605      .   S
    Zr36   O59       0.98605      .   S
    Zr3    O60       0.98346      .   S
    Zr40   O60       0.98346      .   S
    Zr3    O61       0.98623      .   S
    Zr21   O61       0.98623      .   S
    Zr40   O62       0.98346      .   S
    Zr4    O62       0.98346      .   S
    Zr42   O63       0.63868      .   S
    Zr16   O63       0.63868      .   S
    Zr36   O64       0.63861      .   S
    Zr14   O64       0.63861      .   S
    Zr21   O65       0.63860      .   S
    Zr8    O65       0.63860      .   S
    Zr4    O66       0.98586      .   S
    Zr41   O66       0.98586      .   S
    Zr4    O67       0.98611      .   S
    Zr35   O67       0.98611      .   S
    Zr4    O68       0.98631      .   S
    Zr20   O68       0.98631      .   S
    Zr16   O69       0.63850      .   S
    Zr41   O69       0.63850      .   S
    Zr14   O70       0.63860      .   S
    Zr35   O70       0.63860      .   S
    Zr8    O71       0.63862      .   S
    Zr20   O71       0.63862      .   S
    Zr30   O72       0.63895      .   S
    Zr12   O72       0.63895      .   S
    Zr30   O73       0.98782      .   S
    Zr6    O73       0.98782      .   S
    Zr25   O74       0.63850      .   S
    Zr10   O74       0.63850      .   S
    Zr25   O75       0.98612      .   S
    Zr6    O75       0.98612      .   S
    Zr44   O76       0.63850      .   S
    Zr18   O76       0.63850      .   S
    Zr44   O77       0.98587      .   S
    Zr6    O77       0.98587      .   S
    Zr12   O78       0.63860      .   S
    Zr31   O78       0.63860      .   S
    Zr10   O79       0.63918      .   S
    Zr26   O79       0.63918      .   S
    Zr18   O80       0.63868      .   S
    Zr45   O80       0.63868      .   S
    Zr6    O81       0.98346      .   S
    Zr43   O81       0.98346      .   S
    Zr31   O82       0.98623      .   S
    Zr1    O82       0.98623      .   S
    Zr26   O83       0.98605      .   S
    Zr2    O83       0.98605      .   S
    Zr45   O84       0.98651      .   S
    Zr7    O84       0.98651      .   S
    Zr43   O85       0.98346      .   S
    Zr1    O85       0.98346      .   S
    Zr1    O86       0.98591      .   S
    Zr33   O86       0.98591      .   S
    Zr1    O87       0.98605      .   S
    Zr29   O87       0.98605      .   S
    Zr2    O88       0.98593      .   S
    Zr28   O88       0.98593      .   S
    Zr2    O89       0.98612      .   S
    Zr34   O89       0.98612      .   S
    Zr7    O90       0.98638      .   S
    Zr27   O90       0.98638      .   S
    Zr7    O91       0.98646      .   S
    Zr32   O91       0.98646      .   S
    Zr33   O92       0.63806      .   S
    Zr13   O92       0.63806      .   S
    Zr29   O93       0.63859      .   S
    Zr19   O93       0.63859      .   S
    Zr28   O94       0.63852      .   S
    Zr11   O94       0.63852      .   S
    Zr34   O95       0.63858      .   S
    Zr19   O95       0.63858      .   S
    Zr27   O96       0.63864      .   S
    Zr11   O96       0.63864      .   S
    Zr32   O97       0.63872      .   S
    Zr13   O97       0.63872      .   S
    Zr40   O98       0.98352      .   S
    Zr0    O98       0.98352      .   S
    Zr40   O99       0.98456      .   S
    Zr5    O99       0.98456      .   S
    Zr43   O100      0.98353      .   S
    Zr2    O100      0.98353      .   S
    Zr43   O101      0.98462      .   S
    Zr7    O101      0.98462      .   S
    N102   O103      1.07375  1_565   S
    Zr13   O103      1.82210      .   S
    N102   O104      1.07354  1_556   S
    Zr9    O104      1.82121      .   S
    N105   O106      1.07368  1_665   S
    Zr19   O106      1.82150      .   S
    N105   O107      1.07368  1_556   S
    Zr17   O107      1.82151      .   S
    N108   O109      1.07409  1_655   S
    Zr10   O109      1.82134      .   S
    N108   O110      1.07306      .   S
    Zr14   O110      1.82057      .   S
    N111   O112      1.07364      .   S
    Zr16   O112      1.82154      .   S
    N111   O113      1.07365      .   S
    Zr18   O113      1.82155      .   S
    N114   O115      1.07371      .   S
    Zr8    O115      1.82164      .   S
    N114   O116      1.07382  1_565   S
    Zr12   O116      1.82174      .   S
    N117   O118      1.07363  1_556   S
    Zr15   O118      1.82149      .   S
    N117   O119      1.07365  1_655   S
    Zr11   O119      1.82156      .   S
