# CIF file generated by openbabel 2.4.90, see http://openbabel.sf.net
data_I
_chemical_name_common ''
_cell_length_a 21.409
_cell_length_b 12.775
_cell_length_c 12.76
_cell_angle_alpha 106.896
_cell_angle_beta 94.45
_cell_angle_gamma 85.418
_space_group_name_H-M_alt 'P 1'
_space_group_name_Hall 'P 1'
loop_
    _symmetry_equiv_pos_as_xyz
    x,y,z
loop_
    _atom_site_label
    _atom_site_type_symbol
    _atom_site_fract_x
    _atom_site_fract_y
    _atom_site_fract_z
    _atom_site_occupancy
    Zn0     Zn   0.95032   0.57786   0.98129   1.000
    Zn1     Zn   0.29883   0.98094   0.57794   1.000
    Zn2     Zn   0.79975   0.98141   0.57790   1.000
    Zn3     Zn   0.04975   0.42212   0.01873   1.000
    Zn4     Zn   0.54929   0.42208   0.01855   1.000
    Zn5     Zn   0.20027   0.01856   0.42211   1.000
    Zn6     Zn   0.70120   0.01903   0.42205   1.000
    Zn7     Zn   0.45073   0.57793   0.98142   1.000
loop_
    _geom_bond_atom_site_label_1
    _geom_bond_atom_site_label_2
    _geom_bond_distance
    _geom_bond_site_symmetry_2
    _ccdc_geom_bond_type
    Zn7    Zn4       2.89173  1_556   S
    Zn0    Zn3       2.90453  1_656   S
    Zn1    Zn5       2.89471  1_565   S
    Zn2    Zn6       2.89480  1_565   S
