# CIF file generated by openbabel 2.4.90, see http://openbabel.sf.net
data_I
_chemical_name_common ''
_cell_length_a 21.409
_cell_length_b 12.775
_cell_length_c 12.76
_cell_angle_alpha 106.896
_cell_angle_beta 94.45
_cell_angle_gamma 85.418
_space_group_name_H-M_alt 'P 1'
_space_group_name_Hall 'P 1'
loop_
    _symmetry_equiv_pos_as_xyz
    x,y,z
loop_
    _atom_site_label
    _atom_site_type_symbol
    _atom_site_fract_x
    _atom_site_fract_y
    _atom_site_fract_z
    _atom_site_occupancy
    N0      N    0.42637   0.20987   0.53158   1.000
    N1      N    0.92711   0.20990   0.53159   1.000
    N2      N    0.32352   0.53129   0.21001   1.000
    N3      N    0.82341   0.53149   0.20954   1.000
    N4      N    0.50001   0.99999   0.99998   1.000
    N5      N    0.00001   0.99998   1.00000   1.000
    N6      N    0.25014   0.99993   0.00039   1.000
    N7      N    0.74988   0.00006   0.99953   1.000
    N8      N    0.07291   0.79010   0.46838   1.000
    N9      N    0.57369   0.79012   0.46797   1.000
    N10     N    0.17662   0.46846   0.79041   1.000
    N11     N    0.67651   0.46873   0.79001   1.000
    Zr12    Zr   0.50001   0.50001   0.99998   1.000
    O13     O    0.41556   0.65776   0.99539   1.000
    O14     O    0.58446   0.34224   0.00457   1.000
    Zr15    Zr   0.24955   0.99975   0.50002   1.000
    O16     O    0.33414   0.99502   0.65784   1.000
    O17     O    0.16522   0.00464   0.34222   1.000
    Zr18    Zr   0.00004   0.49999   0.00001   1.000
    O19     O    0.91543   0.65781   0.99506   1.000
    O20     O    0.08463   0.34217   0.00493   1.000
    Zr21    Zr   0.75048   0.00022   0.49998   1.000
    O22     O    0.83481   0.99533   0.65777   1.000
    O23     O    0.66589   0.00496   0.34215   1.000
    O24     O    0.26985   0.86264   0.41722   1.000
    O25     O    0.19815   0.94215   0.50528   1.000
    O26     O    0.22950   0.13692   0.58289   1.000
    O27     O    0.30111   0.05741   0.49481   1.000
    O28     O    0.55135   0.50536   0.94224   1.000
    O29     O    0.73018   0.13735   0.58279   1.000
    O30     O    0.44867   0.49465   0.05774   1.000
    O31     O    0.52026   0.58282   0.13697   1.000
    O32     O    0.47978   0.41718   0.86289   1.000
    O33     O    0.77053   0.86304   0.41709   1.000
    O34     O    0.94854   0.49474   0.05741   1.000
    O35     O    0.80188   0.05783   0.49472   1.000
    O36     O    0.98011   0.41720   0.86289   1.000
    O37     O    0.69894   0.94257   0.50507   1.000
    O38     O    0.01994   0.58278   0.13712   1.000
    O39     O    0.05151   0.50524   0.94259   1.000
loop_
    _geom_bond_atom_site_label_1
    _geom_bond_atom_site_label_2
    _geom_bond_distance
    _geom_bond_site_symmetry_2
    _ccdc_geom_bond_type
    Zr12   O13       2.60848      .   S
    N6     O13       5.38995  1_554   S
    Zr12   O14       2.60850  1_556   S
    N7     O14       5.39012  1_556   S
    Zr15   O16       2.61259      .   S
    N4     O16       5.39838      .   S
    Zr15   O17       2.60945  1_565   S
    N5     O17       5.39143  1_566   S
    Zr18   O19       2.61198  1_454   S
    N7     O19       5.39376  1_545   S
    Zr18   O20       2.61168      .   S
    N6     O20       5.39310  1_565   S
    Zr21   O22       2.60941  1_545   S
    N5     O22       5.39141  1_455   S
    Zr21   O23       2.61274      .   S
    N4     O23       5.39883  1_566   S
    Zr15   O24       1.80203      .   S
    N2     O24       4.40658      .   S
    Zr15   O25       1.38807      .   S
    N8     O25       3.35973      .   S
    Zr15   O26       1.80178  1_565   S
    N10    O26       4.40586      .   S
    Zr15   O27       1.39103  1_565   S
    N0     O27       3.36361      .   S
    N11    O28       3.35432      .   S
    Zr12   O28       1.38661      .   S
    N11    O29       4.40698      .   S
    Zr21   O29       1.80221      .   S
    Zr12   O30       1.38664  1_556   S
    N2     O30       3.35445      .   S
    Zr12   O31       1.80092  1_556   S
    N9     O31       4.40368      .   S
    Zr12   O32       1.80195      .   S
    N0     O32       4.40672      .   S
    N3     O33       4.40610      .   S
    Zr21   O33       1.80193  1_545   S
    N3     O34       3.35288      .   S
    Zr18   O34       1.38636  1_455   S
    N1     O35       3.35983      .   S
    Zr21   O35       1.38808      .   S
    N1     O36       4.40453      .   S
    Zr18   O36       1.80067  1_454   S
    Zr21   O37       1.39033  1_545   S
    N9     O37       3.36276      .   S
    Zr18   O38       1.80048      .   S
    N8     O38       4.40415      .   S
    Zr18   O39       1.38620  1_554   S
    N10    O39       3.35267      .   S
