# CIF file generated by openbabel 2.4.90, see http://openbabel.sf.net
data_I
_chemical_name_common ''
_cell_length_a 21.409
_cell_length_b 12.775
_cell_length_c 12.76
_cell_angle_alpha 106.896
_cell_angle_beta 94.45
_cell_angle_gamma 85.418
_space_group_name_H-M_alt 'P 1'
_space_group_name_Hall 'P 1'
loop_
    _symmetry_equiv_pos_as_xyz
    x,y,z
loop_
    _atom_site_label
    _atom_site_type_symbol
    _atom_site_fract_x
    _atom_site_fract_y
    _atom_site_fract_z
    _atom_site_occupancy
    N0      N    0.42637   0.20987   0.53158   1.000
    N1      N    0.92711   0.20990   0.53159   1.000
    N2      N    0.32352   0.53129   0.21001   1.000
    N3      N    0.82341   0.53149   0.20954   1.000
    N4      N    0.50001   0.99999   0.99998   1.000
    N5      N    0.00001   0.99998   1.00000   1.000
    N6      N    0.25014   0.99993   0.00039   1.000
    N7      N    0.74988   0.00006   0.99953   1.000
    N8      N    0.07291   0.79010   0.46838   1.000
    N9      N    0.57369   0.79012   0.46797   1.000
    N10     N    0.17662   0.46846   0.79041   1.000
    N11     N    0.67651   0.46873   0.79001   1.000
    Zr12    Zr   0.50001   0.50001   0.99998   1.000
    O13     O    0.43786   0.51208   0.05301   1.000
    O14     O    0.54054   0.52279   0.93751   1.000
    O15     O    0.41556   0.65776   0.99539   1.000
    O16     O    0.50945   0.60038   0.13255   1.000
    O17     O    0.46897   0.43473   0.85847   1.000
    O18     O    0.45948   0.47722   0.06247   1.000
    O19     O    0.56216   0.48793   0.94698   1.000
    O20     O    0.58446   0.34224   0.00457   1.000
    O21     O    0.53106   0.56526   0.14140   1.000
    O22     O    0.49058   0.39962   0.86732   1.000
    Zr23    Zr   0.24955   0.99975   0.50002   1.000
    O24     O    0.28067   0.85820   0.43476   1.000
    O25     O    0.20895   0.93737   0.52271   1.000
    O26     O    0.31194   0.05274   0.51227   1.000
    O27     O    0.33414   0.99502   0.65784   1.000
    O28     O    0.24029   0.13243   0.60044   1.000
    O29     O    0.25904   0.86709   0.39967   1.000
    O30     O    0.18735   0.94693   0.48785   1.000
    O31     O    0.21870   0.14142   0.56534   1.000
    O32     O    0.29028   0.06208   0.47736   1.000
    O33     O    0.16522   0.00464   0.34222   1.000
    Zr34    Zr   0.00004   0.49999   0.00001   1.000
    O35     O    0.96925   0.43475   0.85845   1.000
    O36     O    0.93766   0.51220   0.05276   1.000
    O37     O    0.91543   0.65781   0.99506   1.000
    O38     O    0.00907   0.60033   0.13268   1.000
    O39     O    0.04063   0.52270   0.93796   1.000
    O40     O    0.99098   0.39965   0.86733   1.000
    O41     O    0.95942   0.47727   0.06205   1.000
    O42     O    0.08463   0.34217   0.00493   1.000
    O43     O    0.03081   0.56524   0.14155   1.000
    O44     O    0.06239   0.48777   0.94722   1.000
    Zr45    Zr   0.75048   0.00022   0.49998   1.000
    O46     O    0.74099   0.13290   0.60033   1.000
    O47     O    0.81268   0.05305   0.51215   1.000
    O48     O    0.78133   0.85855   0.43464   1.000
    O49     O    0.70976   0.93791   0.52254   1.000
    O50     O    0.83481   0.99533   0.65777   1.000
    O51     O    0.71936   0.14179   0.56525   1.000
    O52     O    0.75974   0.86753   0.39954   1.000
    O53     O    0.79108   0.06261   0.47728   1.000
    O54     O    0.68811   0.94722   0.48761   1.000
    O55     O    0.66589   0.00496   0.34215   1.000
loop_
    _geom_bond_atom_site_label_1
    _geom_bond_atom_site_label_2
    _geom_bond_distance
    _geom_bond_site_symmetry_2
    _ccdc_geom_bond_type
    Zr12   O13       1.51593  1_556   S
    N2     O13       3.23195      .   S
    Zr12   O14       1.32505      .   S
    N11    O14       3.50240      .   S
    Zr12   O15       2.60848      .   S
    N6     O15       5.38995  1_554   S
    Zr12   O16       1.80938  1_556   S
    N9     O16       4.43550      .   S
    Zr12   O17       1.85060      .   S
    N0     O17       4.39835      .   S
    Zr12   O18       1.32512  1_556   S
    N2     O18       3.50251      .   S
    Zr12   O19       1.51593      .   S
    N11    O19       3.23180      .   S
    Zr12   O20       2.60850  1_556   S
    N7     O20       5.39012  1_556   S
    Zr12   O21       1.84957  1_556   S
    N9     O21       4.39537      .   S
    Zr12   O22       1.81036      .   S
    N0     O22       4.43858      .   S
    Zr23   O24       1.85087      .   S
    N2     O24       4.39792      .   S
    Zr23   O25       1.32607      .   S
    N8     O25       3.50799      .   S
    Zr23   O26       1.52215  1_565   S
    N0     O26       3.23994      .   S
    Zr23   O27       2.61259      .   S
    N4     O27       5.39838      .   S
    Zr23   O28       1.81037  1_565   S
    N10    O28       4.43746      .   S
    Zr23   O29       1.81034      .   S
    N2     O29       4.43877      .   S
    Zr23   O30       1.51779      .   S
    N8     O30       3.23701      .   S
    Zr23   O31       1.85034  1_565   S
    N10    O31       4.39779      .   S
    Zr23   O32       1.32733  1_565   S
    N0     O32       3.51274      .   S
    Zr23   O33       2.60945  1_565   S
    N5     O33       5.39143  1_566   S
    Zr34   O35       1.84924  1_454   S
    N1     O35       4.39616      .   S
    Zr34   O36       1.51853  1_455   S
    N3     O36       3.22831      .   S
    Zr34   O37       2.61198  1_454   S
    N7     O37       5.39376  1_545   S
    Zr34   O38       1.80937      .   S
    N8     O38       4.43610      .   S
    Zr34   O39       1.32182  1_554   S
    N10    O39       3.50286      .   S
    Zr34   O40       1.80949  1_454   S
    N1     O40       4.43651      .   S
    Zr34   O41       1.32198  1_455   S
    N3     O41       3.50303      .   S
    Zr34   O42       2.61168      .   S
    N6     O42       5.39310  1_565   S
    Zr34   O43       1.84900      .   S
    N8     O43       4.39582      .   S
    Zr34   O44       1.51837  1_554   S
    N10    O44       3.22805      .   S
    Zr45   O46       1.81050      .   S
    N11    O46       4.43916      .   S
    Zr45   O47       1.51774      .   S
    N1     O47       3.23717      .   S
    Zr45   O48       1.85046  1_545   S
    N3     O48       4.39806      .   S
    Zr45   O49       1.32640  1_545   S
    N9     O49       3.51220      .   S
    Zr45   O50       2.60941  1_545   S
    N5     O50       5.39141  1_455   S
    Zr45   O51       1.85105      .   S
    N11    O51       4.39830      .   S
    Zr45   O52       1.81054  1_545   S
    N3     O52       4.43768      .   S
    Zr45   O53       1.32615      .   S
    N1     O53       3.50804      .   S
    Zr45   O54       1.52167  1_545   S
    N9     O54       3.23877      .   S
    Zr45   O55       2.61274      .   S
    N4     O55       5.39883  1_566   S
