# CIF file generated by openbabel 2.4.90, see http://openbabel.sf.net
data_I
_chemical_name_common ''
_cell_length_a 21.409
_cell_length_b 12.775
_cell_length_c 12.76
_cell_angle_alpha 106.896
_cell_angle_beta 94.45
_cell_angle_gamma 85.418
_space_group_name_H-M_alt 'P 1'
_space_group_name_Hall 'P 1'
loop_
    _symmetry_equiv_pos_as_xyz
    x,y,z
loop_
    _atom_site_label
    _atom_site_type_symbol
    _atom_site_fract_x
    _atom_site_fract_y
    _atom_site_fract_z
    _atom_site_occupancy
    Zr0     Zr   0.45073   0.57793   0.98142   1.000
    Zr1     Zr   0.95032   0.57786   0.98129   1.000
    Zr2     Zr   0.29883   0.98094   0.57794   1.000
    Zr3     Zr   0.79975   0.98141   0.57790   1.000
    Zr4     Zr   0.04975   0.42212   0.01873   1.000
    Zr5     Zr   0.54929   0.42208   0.01855   1.000
    Zr6     Zr   0.20027   0.01856   0.42211   1.000
    Zr7     Zr   0.70120   0.01903   0.42205   1.000
    O8      O    0.50001   0.50001   0.99998   1.000
    O9      O    0.00004   0.49999   0.00001   1.000
    O10     O    0.24955   0.99975   0.50002   1.000
    O11     O    0.75048   0.00022   0.49998   1.000
    N12     N    0.42637   0.20987   0.53158   1.000
    O13     O    0.43793   0.36946   0.71695   1.000
    O14     O    0.48115   0.29924   0.73465   1.000
    O15     O    0.33101   0.12440   0.45469   1.000
    O16     O    0.37432   0.10572   0.52451   1.000
    N17     N    0.92711   0.20990   0.53159   1.000
    O18     O    0.93846   0.36951   0.71689   1.000
    O19     O    0.98192   0.29932   0.73464   1.000
    O20     O    0.83168   0.12500   0.45458   1.000
    O21     O    0.87488   0.10588   0.52433   1.000
    N22     N    0.32352   0.53129   0.21001   1.000
    O23     O    0.31178   0.71664   0.36950   1.000
    O24     O    0.26853   0.73442   0.29931   1.000
    O25     O    0.41896   0.45443   0.12496   1.000
    O26     O    0.37572   0.52415   0.10603   1.000
    N27     N    0.82341   0.53149   0.20954   1.000
    O28     O    0.81218   0.71688   0.36930   1.000
    O29     O    0.76900   0.73484   0.29910   1.000
    O30     O    0.91881   0.45456   0.12409   1.000
    O31     O    0.87528   0.52441   0.10552   1.000
    N32     N    0.50001   0.99999   0.99998   1.000
    O33     O    0.41872   0.99028   0.81566   1.000
    O34     O    0.58129   0.00971   0.18433   1.000
    N35     N    0.00001   0.99998   1.00000   1.000
    O36     O    0.91915   0.99044   0.81557   1.000
    O37     O    0.08088   0.00952   0.18442   1.000
    N38     N    0.25014   0.99993   0.00039   1.000
    O39     O    0.33110   0.81552   0.99080   1.000
    O40     O    0.16921   0.18435   0.00985   1.000
    N41     N    0.74988   0.00006   0.99953   1.000
    O42     O    0.83083   0.81563   0.99010   1.000
    O43     O    0.66891   0.18448   0.00915   1.000
    N44     N    0.07291   0.79010   0.46838   1.000
    O45     O    0.16834   0.87499   0.54540   1.000
    O46     O    0.06158   0.63049   0.28310   1.000
    O47     O    0.01810   0.70066   0.26536   1.000
    O48     O    0.12514   0.89411   0.47567   1.000
    N49     N    0.57369   0.79012   0.46797   1.000
    O50     O    0.66905   0.87559   0.54510   1.000
    O51     O    0.56212   0.63052   0.28281   1.000
    O52     O    0.51889   0.70075   0.26511   1.000
    O53     O    0.62575   0.89423   0.47524   1.000
    N54     N    0.17662   0.46846   0.79041   1.000
    O55     O    0.18785   0.28308   0.63066   1.000
    O56     O    0.23104   0.26511   0.70086   1.000
    O57     O    0.08123   0.54542   0.87590   1.000
    O58     O    0.12475   0.47554   0.89442   1.000
    N59     N    0.67651   0.46873   0.79001   1.000
    O60     O    0.68825   0.28336   0.63052   1.000
    O61     O    0.73151   0.26559   0.70069   1.000
    O62     O    0.58107   0.54558   0.87503   1.000
    O63     O    0.62431   0.47586   0.89397   1.000
loop_
    _geom_bond_atom_site_label_1
    _geom_bond_atom_site_label_2
    _geom_bond_distance
    _geom_bond_site_symmetry_2
    _ccdc_geom_bond_type
    Zr0    O8        1.44587      .   S
    Zr5    O8        1.44587  1_554   S
    Zr1    O9        1.45226  1_656   S
    Zr4    O9        1.45226      .   S
    Zr2    O10       1.44736      .   S
    Zr6    O10       1.44736  1_545   S
    Zr3    O11       1.44740  1_565   S
    Zr7    O11       1.44740      .   S
    N12    O13       2.64568      .   S
    Zr0    O13       3.64753      .   S
    N12    O14       2.72324      .   S
    Zr5    O14       3.73559  1_554   S
    N12    O15       2.39703      .   S
    Zr6    O15       3.15155      .   S
    N12    O16       1.78093      .   S
    Zr2    O16       2.61384  1_565   S
    N17    O18       2.64480      .   S
    Zr1    O18       3.64503      .   S
    N17    O19       2.72338      .   S
    Zr4    O19       3.73518  1_454   S
    N17    O20       2.39558      .   S
    Zr7    O20       3.14740      .   S
    N17    O21       1.78166      .   S
    Zr3    O21       2.60648  1_565   S
    N22    O23       2.64478      .   S
    Zr2    O23       3.64636      .   S
    N22    O24       2.72396      .   S
    Zr6    O24       3.73746  1_545   S
    N22    O25       2.39183      .   S
    Zr5    O25       3.14283      .   S
    N22    O26       1.77787      .   S
    Zr0    O26       2.60519  1_556   S
    N27    O28       2.64597      .   S
    Zr3    O28       3.64877      .   S
    N27    O29       2.72196      .   S
    Zr7    O29       3.73482  1_545   S
    N27    O30       2.39335      .   S
    Zr4    O30       3.14857  1_455   S
    N27    O31       1.77379      .   S
    Zr1    O31       2.59985  1_556   S
    N32    O33       2.79374      .   S
    Zr2    O33       3.79919      .   S
    N32    O34       2.79405  1_566   S
    Zr7    O34       3.79944      .   S
    N35    O36       2.79011  1_455   S
    Zr3    O36       3.79277      .   S
    N35    O37       2.79009  1_566   S
    Zr6    O37       3.79290      .   S
    N38    O39       2.78960  1_554   S
    Zr0    O39       3.79221      .   S
    N38    O40       2.78971  1_565   S
    Zr4    O40       3.79258      .   S
    N41    O42       2.79006  1_545   S
    Zr1    O42       3.79314      .   S
    N41    O43       2.78975  1_556   S
    Zr5    O43       3.79226      .   S
    N44    O45       2.39557      .   S
    Zr2    O45       3.14745      .   S
    N44    O46       2.64465      .   S
    Zr4    O46       3.64487      .   S
    N44    O47       2.72318      .   S
    Zr1    O47       3.73461  1_656   S
    N44    O48       1.78147      .   S
    Zr6    O48       2.60637  1_545   S
    N49    O50       2.39756      .   S
    Zr3    O50       3.15066      .   S
    N49    O51       2.64387      .   S
    Zr5    O51       3.64554      .   S
    N49    O52       2.72117      .   S
    Zr0    O52       3.73357  1_556   S
    N49    O53       1.78009      .   S
    Zr7    O53       2.61194  1_545   S
    N54    O55       2.64585      .   S
    Zr6    O55       3.64831      .   S
    N54    O56       2.72193      .   S
    Zr2    O56       3.73465  1_565   S
    N54    O57       2.39342      .   S
    Zr1    O57       3.14800  1_655   S
    N54    O58       1.77358      .   S
    Zr4    O58       2.59988  1_554   S
    N59    O60       2.64496      .   S
    Zr7    O60       3.64686      .   S
    N59    O61       2.72415      .   S
    Zr3    O61       3.73774  1_565   S
    N59    O62       2.39173      .   S
    Zr0    O62       3.14283      .   S
    N59    O63       1.77774      .   S
    Zr5    O63       2.60503  1_554   S
