# CIF file generated by openbabel 2.4.90, see http://openbabel.sf.net
data_I
_chemical_name_common ''
_cell_length_a 15.583
_cell_length_b 17.778
_cell_length_c 18.307
_cell_angle_alpha 112.399
_cell_angle_beta 89.999
_cell_angle_gamma 89.946
_space_group_name_H-M_alt 'P 1'
_space_group_name_Hall 'P 1'
loop_
    _symmetry_equiv_pos_as_xyz
    x,y,z
loop_
    _atom_site_label
    _atom_site_type_symbol
    _atom_site_fract_x
    _atom_site_fract_y
    _atom_site_fract_z
    _atom_site_occupancy
    Zn0     Zn   0.90067   0.00000   0.16639   1.000
    Zn1     Zn   0.50068   0.49779   0.16613   1.000
    Zn2     Zn   0.40376   0.50091   0.00296   1.000
    Zn3     Zn   0.59612   0.49775   0.33358   1.000
    Zn4     Zn   0.40056   0.49956   0.33311   1.000
    Zn5     Zn   0.00060   0.00232   0.33370   1.000
    Zn6     Zn   0.90360   0.99867   0.49695   1.000
    Zn7     Zn   0.90379   0.99742   0.83364   1.000
    Zn8     Zn   0.09934   0.99941   0.83368   1.000
    Zn9     Zn   0.49991   0.50218   0.83374   1.000
    Zn10    Zn   0.59975   0.49892   0.99692   1.000
    Zn11    Zn   0.40397   0.50204   0.66649   1.000
    Zn12    Zn   0.59951   0.50081   0.66636   1.000
    Zn13    Zn   0.99985   0.99773   0.66631   1.000
    Zn14    Zn   0.09962   0.00161   0.50318   1.000
    Zn15    Zn   0.00000   0.99995   0.10000   1.000
    Zn16    Zn   0.49997   0.50002   0.49993   1.000
    H17     H    0.99449   0.10683   0.13705   1.000
    H18     H    0.99911   0.89661   0.19670   1.000
    H19     H    0.50343   0.39374   0.02754   1.000
    Zn20    Zn   0.09626   0.00259   0.16627   1.000
    H21     H    0.49495   0.39343   0.36302   1.000
    H22     H    0.49846   0.60345   0.30300   1.000
    H23     H    0.00000   0.10636   0.47244   1.000
    H24     H    0.00525   0.89301   0.86300   1.000
    H25     H    0.00000   0.10334   0.80300   1.000
    H26     H    0.49970   0.60623   0.97262   1.000
    H27     H    0.50459   0.60668   0.63684   1.000
    H28     H    0.50236   0.39653   0.69660   1.000
    H29     H    0.00041   0.89388   0.52737   1.000
    C30     C    0.86216   0.12100   0.98080   1.000
    C31     C    0.63646   0.37456   0.18439   1.000
    C32     C    0.84195   0.89465   0.01627   1.000
    C33     C    0.65700   0.60789   0.81621   1.000
    C34     C    0.37116   0.62857   0.15195   1.000
    O35     O    0.15908   0.90719   0.75860   1.000
    O36     O    0.93700   0.89127   0.31872   1.000
    O37     O    0.84438   0.90709   0.41934   1.000
    O38     O    0.62156   0.55959   0.18081   1.000
    C39     C    0.16502   0.90185   0.35130   1.000
    C40     C    0.36339   0.37791   0.51849   1.000
    C41     C    0.13645   0.12549   0.31581   1.000
    C42     C    0.34178   0.60501   0.48365   1.000
    C43     C    0.15706   0.89226   0.68389   1.000
    C44     C    0.87145   0.87117   0.34776   1.000
    C45     C    0.66524   0.59825   0.14870   1.000
    C46     C    0.13790   0.87892   0.01906   1.000
    C47     C    0.36361   0.62518   0.81577   1.000
    C48     C    0.15810   0.10515   0.98380   1.000
    C49     C    0.34334   0.39240   0.18243   1.000
    C50     C    0.63055   0.37146   0.84749   1.000
    C51     C    0.83603   0.09784   0.64780   1.000
    C52     C    0.63670   0.62199   0.48156   1.000
    C53     C    0.86363   0.87462   0.68397   1.000
    C54     C    0.65819   0.39494   0.51606   1.000
    C55     C    0.84317   0.10744   0.31666   1.000
    C56     C    0.13013   0.12891   0.65283   1.000
    C57     C    0.33691   0.40144   0.85184   1.000
    O58     O    0.99680   0.04807   0.12229   1.000
    O59     O    0.99949   0.95527   0.21051   1.000
    O60     O    0.50333   0.45269   0.04341   1.000
    O61     O    0.93342   0.10894   0.00000   1.000
    O62     O    0.83438   0.08144   0.91002   1.000
    O63     O    0.56662   0.38828   0.15652   1.000
    O64     O    0.66283   0.41220   0.25603   1.000
    O65     O    0.88074   0.93713   0.98505   1.000
    O66     O    0.84085   0.90862   0.09093   1.000
    O67     O    0.61885   0.56518   0.84764   1.000
    O68     O    0.65906   0.59298   0.74143   1.000
    O69     O    0.43692   0.60874   0.18099   1.000
    O70     O    0.34411   0.59242   0.08042   1.000
    O71     O    0.12130   0.94053   0.31927   1.000
    O72     O    0.16647   0.91594   0.42610   1.000
    O73     O    0.49692   0.45216   0.37751   1.000
    O74     O    0.49911   0.54477   0.28910   1.000
    O75     O    0.00270   0.04741   0.45660   1.000
    O76     O    0.43372   0.39064   0.49073   1.000
    O77     O    0.33671   0.41661   0.58984   1.000
    O78     O    0.06667   0.11184   0.34379   1.000
    O79     O    0.16263   0.08806   0.24406   1.000
    O80     O    0.38046   0.56245   0.51492   1.000
    O81     O    0.34077   0.59106   0.40899   1.000
    O82     O    0.11889   0.93504   0.65248   1.000
    O83     O    0.66650   0.58436   0.07399   1.000
    O84     O    0.00301   0.95177   0.87774   1.000
    O85     O    0.00000   0.04465   0.78951   1.000
    O86     O    0.50003   0.54726   0.95650   1.000
    O87     O    0.06667   0.89095   0.99215   1.000
    O88     O    0.16561   0.91854   0.08986   1.000
    O89     O    0.43339   0.61139   0.84369   1.000
    O90     O    0.33727   0.58758   0.74410   1.000
    O91     O    0.11919   0.06295   0.01525   1.000
    O92     O    0.15918   0.09092   0.90909   1.000
    O93     O    0.38167   0.43457   0.15049   1.000
    O94     O    0.34106   0.40795   0.25732   1.000
    O95     O    0.56424   0.39124   0.81918   1.000
    O96     O    0.65900   0.40800   0.91852   1.000
    O97     O    0.88002   0.05947   0.68003   1.000
    O98     O    0.83494   0.08375   0.57303   1.000
    O99     O    0.50270   0.54794   0.62231   1.000
    O100    O    0.50147   0.45522   0.71060   1.000
    O101    O    0.00000   0.95286   0.54349   1.000
    O102    O    0.56631   0.60937   0.50932   1.000
    O103    O    0.66339   0.58315   0.41020   1.000
    O104    O    0.93335   0.88834   0.65590   1.000
    O105    O    0.83746   0.91201   0.75574   1.000
    O106    O    0.61937   0.43733   0.48467   1.000
    O107    O    0.65926   0.40911   0.59070   1.000
    O108    O    0.88156   0.06508   0.34840   1.000
    O109    O    0.84095   0.09206   0.24181   1.000
    O110    O    0.06401   0.10898   0.68122   1.000
    O111    O    0.15843   0.09261   0.58165   1.000
    O112    O    0.38021   0.44017   0.81955   1.000
    O113    O    0.33672   0.41500   0.92650   1.000
loop_
    _geom_bond_atom_site_label_1
    _geom_bond_atom_site_label_2
    _geom_bond_distance
    _geom_bond_site_symmetry_2
    _ccdc_geom_bond_type
    O61    C30       1.20822  1_554   S
    Zn2    O60       2.04255      .   S
    Zn2    O70       1.93917      .   S
    Zn2    O113      1.93832  1_554   S
    O91    C48       1.26176  1_554   S
    C32    O66       1.29284      .   S
    C32    O65       1.26176  1_554   S
    C46    O88       1.29126      .   S
    C46    O87       1.26498  1_554   S
    H19    O60       0.97503      .   S
    O83    C45       1.29408      .   S
    O83    Zn10      1.93642  1_554   S
    O70    C34       1.29024      .   S
    O88    Zn20      1.93942  1_565   S
    O66    Zn0       1.92591  1_565   S
    O58    H17       0.97489      .   S
    O58    Zn15      0.79663  1_645   S
    C45    O38       1.26097      .   S
    O93    Zn1       2.13149      .   S
    O93    C49       1.26316      .   S
    C34    O69       1.26462      .   S
    O63    Zn1       2.14764      .   S
    O63    C31       1.26430      .   S
    Zn1    O38       2.14628      .   S
    Zn1    O69       2.13045      .   S
    Zn20   O79       1.93925      .   S
    Zn0    O59       2.03553  1_545   S
    Zn0    O109      1.93034      .   S
    C49    O94       1.29172      .   S
    C31    O64       1.29167      .   S
    H18    O59       0.97503      .   S
    O109   C55       1.29156      .   S
    O79    C41       1.29148      .   S
    O64    Zn3       1.93928      .   S
    O94    Zn4       1.92830      .   S
    O74    H22       0.97506      .   S
    O74    Zn4       2.03691      .   S
    C41    O78       1.26444      .   S
    C55    O108      1.26302      .   S
    O36    Zn5       2.13226  1_665   S
    O36    C44       1.26458      .   S
    O71    Zn5       2.14221  1_565   S
    O71    C39       1.25989      .   S
    Zn4    O73       2.03597      .   S
    Zn4    O81       1.92840      .   S
    Zn3    O103      1.93685      .   S
    Zn5    O78       2.14817      .   S
    Zn5    O108      2.12743  1_455   S
    C44    O37       1.29023      .   S
    C39    O72       1.29498      .   S
    H21    O73       0.97494      .   S
    O81    C42       1.29286      .   S
    O103   C52       1.29164      .   S
    O37    Zn6       1.93937      .   S
    O72    Zn14      1.93773  1_565   S
    O75    H23       0.97589      .   S
    O75    Zn6       2.04248  1_445   S
    C52    O102      1.26452      .   S
    C42    O80       1.26208      .   S
    O106   Zn16      2.13085      .   S
    O106   C54       1.26235      .   S
    O76    Zn16      2.15165      .   S
    O76    C40       1.26446      .   S
    Zn6    O101      2.04267  1_655   S
    Zn6    O98       1.94000  1_565   S
    Zn16   O102      2.15093      .   S
    Zn16   O80       2.13061      .   S
    Zn14   O111      1.93716      .   S
    C54    O107      1.29172      .   S
    C40    O77       1.29106      .   S
    H29    O101      0.97503      .   S
    O98    C51       1.29434      .   S
    O111   C56       1.29135      .   S
    O77    Zn11      1.93728      .   S
    O107   Zn12      1.92860      .   S
    O99    H27       0.97490      .   S
    O99    Zn12      2.03487      .   S
    C51    O97       1.26075      .   S
    O82    Zn13      2.12795  1_455   S
    O82    C43       1.26300      .   S
    C56    O110      1.26418      .   S
    O104   Zn13      2.14778      .   S
    O104   C53       1.26490      .   S
    Zn13   O97       2.13085  1_565   S
    Zn13   O110      2.13970  1_665   S
    Zn12   O100      2.03700      .   S
    Zn12   O68       1.92905      .   S
    Zn11   O90       1.93953      .   S
    C43    O35       1.29054      .   S
    C53    O105      1.29164      .   S
    H28    O100      0.97510      .   S
    O68    C33       1.29184      .   S
    O90    C47       1.29186      .   S
    O105   Zn7       1.93915      .   S
    O35    Zn8       1.92962      .   S
    O85    H25       0.97639      .   S
    O85    Zn7       2.03095  1_445   S
    C47    O89       1.26426      .   S
    C33    O67       1.26283      .   S
    O95    Zn9       2.13578      .   S
    O95    C50       1.26429      .   S
    O112   Zn9       2.13261      .   S
    O112   C57       1.26088      .   S
    Zn7    O62       1.93942  1_565   S
    Zn8    O84       2.03578      .   S
    Zn8    O92       1.92703  1_565   S
    Zn9    O89       2.14577      .   S
    Zn9    O67       2.13096      .   S
    C50    O96       1.29082      .   S
    C57    O113      1.29428      .   S
    H24    O84       0.97489      .   S
    O92    C48       1.29274      .   S
    O62    C30       1.29115      .   S
    O96    Zn10      1.93767      .   S
    O86    H26       0.97492      .   S
    O86    Zn10      2.04522      .   S
    O58    Zn20      2.04895  1_655   S
    O58    Zn0       2.03814      .   S
    O59    Zn20      2.03930  1_665   S
    O59    Zn5       2.08529  1_665   S
    O60    Zn1       2.07824      .   S
    O60    Zn10      2.04760  1_554   S
    O73    Zn3       2.04744      .   S
    O73    Zn16      2.07262      .   S
    O74    Zn1       2.08162      .   S
    O74    Zn3       2.04054      .   S
    O75    Zn5       2.08119      .   S
    O75    Zn14      2.04900      .   S
    O84    Zn7       2.04888  1_455   S
    O85    Zn8       2.04707  1_545   S
    O85    Zn13      2.08541  1_445   S
    O86    Zn2       2.04677  1_556   S
    O86    Zn9       2.07854      .   S
    O99    Zn11      2.04747      .   S
    O99    Zn16      2.07183      .   S
    O100   Zn9       2.08451      .   S
    O100   Zn11      2.04051      .   S
    O101   Zn13      2.07967  1_455   S
    O101   Zn14      2.04828  1_565   S
