# CIF file generated by openbabel 2.4.90, see http://openbabel.sf.net
data_I
_chemical_name_common ''
_cell_length_a 15.583
_cell_length_b 17.778
_cell_length_c 18.307
_cell_angle_alpha 112.399
_cell_angle_beta 89.999
_cell_angle_gamma 89.946
_space_group_name_H-M_alt 'P 1'
_space_group_name_Hall 'P 1'
loop_
    _symmetry_equiv_pos_as_xyz
    x,y,z
loop_
    _atom_site_label
    _atom_site_type_symbol
    _atom_site_fract_x
    _atom_site_fract_y
    _atom_site_fract_z
    _atom_site_occupancy
    C0      C    0.86216   0.12100   0.98080   1.000
    C1      C    0.63646   0.37456   0.18439   1.000
    C2      C    0.84195   0.89465   0.01627   1.000
    C3      C    0.65700   0.60789   0.81621   1.000
    C4      C    0.37116   0.62857   0.15195   1.000
    C5      C    0.16502   0.90185   0.35130   1.000
    C6      C    0.36339   0.37791   0.51849   1.000
    C7      C    0.13645   0.12549   0.31581   1.000
    C8      C    0.34178   0.60501   0.48365   1.000
    C9      C    0.15706   0.89226   0.68389   1.000
    C10     C    0.87145   0.87117   0.34776   1.000
    C11     C    0.66524   0.59825   0.14870   1.000
    C12     C    0.13790   0.87892   0.01906   1.000
    C13     C    0.36361   0.62518   0.81577   1.000
    C14     C    0.15810   0.10515   0.98380   1.000
    C15     C    0.34334   0.39240   0.18243   1.000
    C16     C    0.63055   0.37146   0.84749   1.000
    C17     C    0.83603   0.09784   0.64780   1.000
    C18     C    0.63670   0.62199   0.48156   1.000
    C19     C    0.86363   0.87462   0.68397   1.000
    C20     C    0.65819   0.39494   0.51606   1.000
    C21     C    0.84317   0.10744   0.31666   1.000
    C22     C    0.13013   0.12891   0.65283   1.000
    C23     C    0.33691   0.40144   0.85184   1.000
