# CIF file generated by openbabel 2.4.90, see http://openbabel.sf.net
data_I
_chemical_name_common ''
_cell_length_a 15.583
_cell_length_b 17.778
_cell_length_c 18.307
_cell_angle_alpha 112.399
_cell_angle_beta 89.999
_cell_angle_gamma 89.946
_space_group_name_H-M_alt 'P 1'
_space_group_name_Hall 'P 1'
loop_
    _symmetry_equiv_pos_as_xyz
    x,y,z
loop_
    _atom_site_label
    _atom_site_type_symbol
    _atom_site_fract_x
    _atom_site_fract_y
    _atom_site_fract_z
    _atom_site_occupancy
    Zr0     Zr   0.09626   0.00259   0.16627   1.000
    Zr1     Zr   0.90067   0.00000   0.16639   1.000
    Zr2     Zr   0.50068   0.49779   0.16613   1.000
    Zr3     Zr   0.40376   0.50091   0.00296   1.000
    Zr4     Zr   0.59612   0.49775   0.33358   1.000
    Zr5     Zr   0.40056   0.49956   0.33311   1.000
    Zr6     Zr   0.00060   0.00232   0.33370   1.000
    Zr7     Zr   0.90360   0.99867   0.49695   1.000
    Zr8     Zr   0.90379   0.99742   0.83364   1.000
    Zr9     Zr   0.09934   0.99941   0.83368   1.000
    Zr10    Zr   0.49991   0.50218   0.83374   1.000
    Zr11    Zr   0.59975   0.49892   0.99692   1.000
    Zr12    Zr   0.40397   0.50204   0.66649   1.000
    Zr13    Zr   0.59951   0.50081   0.66636   1.000
    Zr14    Zr   0.99985   0.99773   0.66631   1.000
    Zr15    Zr   0.09962   0.00161   0.50318   1.000
    Zr16    Zr   0.00000   0.99995   0.10000   1.000
    Zr17    Zr   0.49997   0.50002   0.49993   1.000
    Zr18    Zr   0.99449   0.10683   0.13705   1.000
    Zr19    Zr   0.99911   0.89661   0.19670   1.000
    Zr20    Zr   0.50343   0.39374   0.02754   1.000
    Zr21    Zr   0.49495   0.39343   0.36302   1.000
    Zr22    Zr   0.49846   0.60345   0.30300   1.000
    Zr23    Zr   0.00000   0.10636   0.47244   1.000
    Zr24    Zr   0.00525   0.89301   0.86300   1.000
    Zr25    Zr   0.00000   0.10334   0.80300   1.000
    Zr26    Zr   0.49970   0.60623   0.97262   1.000
    Zr27    Zr   0.50459   0.60668   0.63684   1.000
    Zr28    Zr   0.50236   0.39653   0.69660   1.000
    Zr29    Zr   0.00041   0.89388   0.52737   1.000
    Zr30    Zr   0.86216   0.12100   0.98080   1.000
    Zr31    Zr   0.63646   0.37456   0.18439   1.000
    Zr32    Zr   0.84195   0.89465   0.01627   1.000
    Zr33    Zr   0.65700   0.60789   0.81621   1.000
    Zr34    Zr   0.37116   0.62857   0.15195   1.000
    Zr35    Zr   0.16502   0.90185   0.35130   1.000
    Zr36    Zr   0.36339   0.37791   0.51849   1.000
    Zr37    Zr   0.13645   0.12549   0.31581   1.000
    Zr38    Zr   0.34178   0.60501   0.48365   1.000
    Zr39    Zr   0.15706   0.89226   0.68389   1.000
    Zr40    Zr   0.87145   0.87117   0.34776   1.000
    Zr41    Zr   0.66524   0.59825   0.14870   1.000
    Zr42    Zr   0.13790   0.87892   0.01906   1.000
    Zr43    Zr   0.36361   0.62518   0.81577   1.000
    Zr44    Zr   0.15810   0.10515   0.98380   1.000
    Zr45    Zr   0.34334   0.39240   0.18243   1.000
    Zr46    Zr   0.63055   0.37146   0.84749   1.000
    Zr47    Zr   0.83603   0.09784   0.64780   1.000
    Zr48    Zr   0.63670   0.62199   0.48156   1.000
    Zr49    Zr   0.86363   0.87462   0.68397   1.000
    Zr50    Zr   0.65819   0.39494   0.51606   1.000
    Zr51    Zr   0.84317   0.10744   0.31666   1.000
    Zr52    Zr   0.13013   0.12891   0.65283   1.000
    Zr53    Zr   0.33691   0.40144   0.85184   1.000
    Zr54    Zr   0.99680   0.04807   0.12229   1.000
    Zr55    Zr   0.99949   0.95527   0.21051   1.000
    Zr56    Zr   0.50333   0.45269   0.04341   1.000
    Zr57    Zr   0.93342   0.10894   0.00000   1.000
    Zr58    Zr   0.83438   0.08144   0.91002   1.000
    Zr59    Zr   0.56662   0.38828   0.15652   1.000
    Zr60    Zr   0.66283   0.41220   0.25603   1.000
    Zr61    Zr   0.88074   0.93713   0.98505   1.000
    Zr62    Zr   0.84085   0.90862   0.09093   1.000
    Zr63    Zr   0.61885   0.56518   0.84764   1.000
    Zr64    Zr   0.65906   0.59298   0.74143   1.000
    Zr65    Zr   0.43692   0.60874   0.18099   1.000
    Zr66    Zr   0.34411   0.59242   0.08042   1.000
    Zr67    Zr   0.12130   0.94053   0.31927   1.000
    Zr68    Zr   0.16647   0.91594   0.42610   1.000
    Zr69    Zr   0.49692   0.45216   0.37751   1.000
    Zr70    Zr   0.49911   0.54477   0.28910   1.000
    Zr71    Zr   0.00270   0.04741   0.45660   1.000
    Zr72    Zr   0.43372   0.39064   0.49073   1.000
    Zr73    Zr   0.33671   0.41661   0.58984   1.000
    Zr74    Zr   0.06667   0.11184   0.34379   1.000
    Zr75    Zr   0.16263   0.08806   0.24406   1.000
    Zr76    Zr   0.38046   0.56245   0.51492   1.000
    Zr77    Zr   0.34077   0.59106   0.40899   1.000
    Zr78    Zr   0.11889   0.93504   0.65248   1.000
    Zr79    Zr   0.15908   0.90719   0.75860   1.000
    Zr80    Zr   0.93700   0.89127   0.31872   1.000
    Zr81    Zr   0.84438   0.90709   0.41934   1.000
    Zr82    Zr   0.62156   0.55959   0.18081   1.000
    Zr83    Zr   0.66650   0.58436   0.07399   1.000
    Zr84    Zr   0.00301   0.95177   0.87774   1.000
    Zr85    Zr   0.00000   0.04465   0.78951   1.000
    Zr86    Zr   0.50003   0.54726   0.95650   1.000
    Zr87    Zr   0.06667   0.89095   0.99215   1.000
    Zr88    Zr   0.16561   0.91854   0.08986   1.000
    Zr89    Zr   0.43339   0.61139   0.84369   1.000
    Zr90    Zr   0.33727   0.58758   0.74410   1.000
    Zr91    Zr   0.11919   0.06295   0.01525   1.000
    Zr92    Zr   0.15918   0.09092   0.90909   1.000
    Zr93    Zr   0.38167   0.43457   0.15049   1.000
    Zr94    Zr   0.34106   0.40795   0.25732   1.000
    Zr95    Zr   0.56424   0.39124   0.81918   1.000
    Zr96    Zr   0.65900   0.40800   0.91852   1.000
    Zr97    Zr   0.88002   0.05947   0.68003   1.000
    Zr98    Zr   0.83494   0.08375   0.57303   1.000
    Zr99    Zr   0.50270   0.54794   0.62231   1.000
    Zr100   Zr   0.50147   0.45522   0.71060   1.000
    Zr101   Zr   0.00000   0.95286   0.54349   1.000
    Zr102   Zr   0.56631   0.60937   0.50932   1.000
    Zr103   Zr   0.66339   0.58315   0.41020   1.000
    Zr104   Zr   0.93335   0.88834   0.65590   1.000
    Zr105   Zr   0.83746   0.91201   0.75574   1.000
    Zr106   Zr   0.61937   0.43733   0.48467   1.000
    Zr107   Zr   0.65926   0.40911   0.59070   1.000
    Zr108   Zr   0.88156   0.06508   0.34840   1.000
    Zr109   Zr   0.84095   0.09206   0.24181   1.000
    Zr110   Zr   0.06401   0.10898   0.68122   1.000
    Zr111   Zr   0.15843   0.09261   0.58165   1.000
    Zr112   Zr   0.38021   0.44017   0.81955   1.000
    Zr113   Zr   0.33672   0.41500   0.92650   1.000
    O114    O    0.89779   0.11497   0.99040   1.000
    O115    O    0.45354   0.47680   0.02319   1.000
    O116    O    0.37393   0.54667   0.04169   1.000
    O117    O    0.37024   0.45796   0.96473   1.000
    O118    O    0.13865   0.08405   0.99953   1.000
    O119    O    0.84140   0.90164   0.05360   1.000
    O120    O    0.86135   0.91589   0.00066   1.000
    O121    O    0.15176   0.89873   0.05446   1.000
    O122    O    0.10229   0.88493   0.00561   1.000
    O123    O    0.50338   0.42322   0.03547   1.000
    O124    O    0.66587   0.59131   0.11134   1.000
    O125    O    0.63313   0.54164   0.03546   1.000
    O126    O    0.35763   0.61049   0.11619   1.000
    O127    O    0.13094   0.96056   0.12807   1.000
    O128    O    0.87076   0.95431   0.12866   1.000
    O129    O    0.99564   0.07745   0.12967   1.000
    O130    O    0.99840   0.02401   0.11115   1.000
    O131    O    0.64340   0.57892   0.16475   1.000
    O132    O    0.44118   0.46618   0.15831   1.000
    O133    O    0.36250   0.41349   0.16646   1.000
    O134    O    0.40404   0.61865   0.16647   1.000
    O135    O    0.53365   0.44304   0.16133   1.000
    O136    O    0.60154   0.38142   0.17045   1.000
    O137    O    0.56112   0.52869   0.17347   1.000
    O138    O    0.46880   0.55327   0.17356   1.000
    O139    O    0.12944   0.04532   0.20516   1.000
    O140    O    0.95008   0.97764   0.18845   1.000
    O141    O    0.87081   0.04603   0.20410   1.000
    O142    O    0.34220   0.40017   0.21988   1.000
    O143    O    0.64964   0.39338   0.22021   1.000
    O144    O    0.99930   0.92594   0.20361   1.000
    O145    O    0.84206   0.09975   0.27924   1.000
    O146    O    0.14954   0.10677   0.27993   1.000
    O147    O    0.62948   0.45497   0.29480   1.000
    O148    O    0.37081   0.45376   0.29522   1.000
    O149    O    0.49878   0.57411   0.29605   1.000
    O150    O    0.44984   0.52217   0.31111   1.000
    O151    O    0.10156   0.11867   0.32980   1.000
    O152    O    0.86236   0.08626   0.33253   1.000
    O153    O    0.96880   0.94680   0.32621   1.000
    O154    O    0.90422   0.88122   0.33324   1.000
    O155    O    0.06095   0.97143   0.32648   1.000
    O156    O    0.14316   0.92119   0.33528   1.000
    O157    O    0.44874   0.47586   0.35531   1.000
    O158    O    0.37067   0.54531   0.37105   1.000
    O159    O    0.62975   0.54045   0.37189   1.000
    O160    O    0.03363   0.05708   0.33874   1.000
    O161    O    0.94108   0.03370   0.34105   1.000
    O162    O    0.85791   0.88913   0.38355   1.000
    O163    O    0.16574   0.90890   0.38870   1.000
    O164    O    0.49594   0.42280   0.37027   1.000
    O165    O    0.34127   0.59804   0.44632   1.000
    O166    O    0.65004   0.60257   0.44588   1.000
    O167    O    0.87399   0.95288   0.45815   1.000
    O168    O    0.13304   0.95878   0.46464   1.000
    O169    O    0.00135   0.07689   0.46452   1.000
    O170    O    0.95315   0.02304   0.47678   1.000
    O171    O    0.60151   0.61568   0.49544   1.000
    O172    O    0.36112   0.58373   0.49928   1.000
    O173    O    0.55967   0.46868   0.49230   1.000
    O174    O    0.63878   0.41614   0.50036   1.000
    O175    O    0.46685   0.44533   0.49533   1.000
    O176    O    0.39855   0.38428   0.50461   1.000
    O177    O    0.95180   0.97576   0.52022   1.000
    O178    O    0.86927   0.04121   0.53499   1.000
    O179    O    0.53314   0.55469   0.50462   1.000
    O180    O    0.44021   0.53124   0.50743   1.000
    O181    O    0.12903   0.04711   0.54241   1.000
    O182    O    0.65873   0.40202   0.55338   1.000
    O183    O    0.35005   0.39726   0.55417   1.000
    O184    O    0.00020   0.92337   0.53543   1.000
    O185    O    0.83548   0.09079   0.61042   1.000
    O186    O    0.14428   0.11076   0.61724   1.000
    O187    O    0.37034   0.45933   0.62816   1.000
    O188    O    0.62939   0.45496   0.62853   1.000
    O189    O    0.50364   0.57731   0.62958   1.000
    O190    O    0.55111   0.52437   0.64434   1.000
    O191    O    0.85802   0.07865   0.66392   1.000
    O192    O    0.05937   0.96638   0.65939   1.000
    O193    O    0.13797   0.91365   0.66818   1.000
    O194    O    0.09707   0.11894   0.66703   1.000
    O195    O    0.96660   0.94303   0.66111   1.000
    O196    O    0.89849   0.88148   0.66994   1.000
    O197    O    0.93993   0.02860   0.67317   1.000
    O198    O    0.03193   0.05335   0.67376   1.000
    O199    O    0.55049   0.47801   0.68848   1.000
    O200    O    0.62928   0.54689   0.70389   1.000
    O201    O    0.37062   0.54481   0.70530   1.000
    O202    O    0.15807   0.89973   0.72125   1.000
    O203    O    0.85055   0.89332   0.71986   1.000
    O204    O    0.50192   0.42587   0.70360   1.000
    O205    O    0.65803   0.60043   0.77882   1.000
    O206    O    0.35044   0.60638   0.77994   1.000
    O207    O    0.87063   0.95472   0.79469   1.000
    O208    O    0.12921   0.95330   0.79614   1.000
    O209    O    0.00000   0.07400   0.79626   1.000
    O210    O    0.95189   0.02104   0.81158   1.000
    O211    O    0.39850   0.61829   0.82973   1.000
    O212    O    0.63793   0.58653   0.83193   1.000
    O213    O    0.53207   0.44671   0.82646   1.000
    O214    O    0.59739   0.38135   0.83334   1.000
    O215    O    0.44006   0.47117   0.82664   1.000
    O216    O    0.35856   0.42080   0.83569   1.000
    O217    O    0.86908   0.03943   0.87183   1.000
    O218    O    0.05117   0.97559   0.85571   1.000
    O219    O    0.12926   0.04516   0.87138   1.000
    O220    O    0.46665   0.55679   0.83871   1.000
    O221    O    0.55938   0.53368   0.84069   1.000
    O222    O    0.64478   0.38973   0.88301   1.000
    O223    O    0.33681   0.40822   0.88917   1.000
    O224    O    0.00413   0.92239   0.87037   1.000
    O225    O    0.15864   0.09804   0.94645   1.000
    O226    O    0.84827   0.10122   0.94541   1.000
    O227    O    0.62938   0.45346   0.95772   1.000
    O228    O    0.49986   0.57675   0.96456   1.000
    O229    O    0.54989   0.52309   0.97671   1.000
    O230    O    0.04653   0.02533   0.14428   1.000
    O231    O    0.94873   0.02403   0.14434   1.000
    O232    O    0.04788   0.97893   0.18839   1.000
    O233    O    0.00005   0.97880   0.27210   1.000
    O234    O    0.50201   0.47524   0.10477   1.000
    O235    O    0.55154   0.47581   0.02017   1.000
    O236    O    0.54652   0.47496   0.35555   1.000
    O237    O    0.49845   0.47609   0.43872   1.000
    O238    O    0.49989   0.52128   0.22762   1.000
    O239    O    0.54761   0.52126   0.31134   1.000
    O240    O    0.00165   0.02487   0.39515   1.000
    O241    O    0.05116   0.02451   0.47989   1.000
    O242    O    0.95340   0.97460   0.85569   1.000
    O243    O    0.04967   0.02203   0.81160   1.000
    O244    O    0.99992   0.02119   0.72791   1.000
    O245    O    0.45189   0.52409   0.97973   1.000
    O246    O    0.49997   0.52472   0.89512   1.000
    O247    O    0.45333   0.52499   0.64440   1.000
    O248    O    0.50133   0.52398   0.56112   1.000
    O249    O    0.50069   0.47870   0.77217   1.000
    O250    O    0.45272   0.47863   0.68855   1.000
    O251    O    0.99992   0.97529   0.60490   1.000
    O252    O    0.04981   0.97723   0.52333   1.000
    N253    N    0.73035   0.23228   0.74756   1.000
    O254    O    0.69322   0.28381   0.78466   1.000
    O255    O    0.76922   0.18218   0.71049   1.000
    N256    N    0.25191   0.24791   0.08317   1.000
    O257    O    0.21736   0.19479   0.04631   1.000
    O258    O    0.28570   0.30157   0.12002   1.000
    N259    N    0.75174   0.25195   0.41629   1.000
    O260    O    0.78552   0.19829   0.37930   1.000
    O261    O    0.71729   0.30515   0.45330   1.000
    N262    N    0.74839   0.75203   0.91626   1.000
    O263    O    0.78285   0.80509   0.95338   1.000
    O264    O    0.71461   0.69850   0.87913   1.000
    N265    N    0.23048   0.26761   0.75237   1.000
    O266    O    0.19311   0.21628   0.71545   1.000
    O267    O    0.26964   0.31748   0.78935   1.000
    N268    N    0.77080   0.73268   0.24825   1.000
    O269    O    0.73193   0.68261   0.21129   1.000
    O270    O    0.80822   0.78397   0.28520   1.000
    N271    N    0.27035   0.76710   0.25160   1.000
    O272    O    0.23155   0.81727   0.28862   1.000
    O273    O    0.30781   0.71578   0.21459   1.000
    N274    N    0.24837   0.74792   0.58377   1.000
    O275    O    0.21463   0.80153   0.62093   1.000
    O276    O    0.28277   0.69476   0.54662   1.000
    N277    N    0.74936   0.24780   0.08259   1.000
    O278    O    0.79121   0.20081   0.04478   1.000
    O279    O    0.70747   0.29478   0.12040   1.000
    N280    N    0.25073   0.75203   0.91745   1.000
    O281    O    0.29261   0.70502   0.87968   1.000
    O282    O    0.20887   0.79906   0.95519   1.000
    N283    N    0.24997   0.25157   0.41729   1.000
    O284    O    0.20784   0.20485   0.37962   1.000
    O285    O    0.29206   0.29837   0.45489   1.000
    N286    N    0.75013   0.74842   0.58262   1.000
    O287    O    0.79225   0.79518   0.62024   1.000
    O288    O    0.70804   0.70158   0.54507   1.000
loop_
    _geom_bond_atom_site_label_1
    _geom_bond_atom_site_label_2
    _geom_bond_distance
    _geom_bond_site_symmetry_2
    _ccdc_geom_bond_type
    Zr57   O114      0.60411  1_554   S
    Zr30   O114      0.60411      .   S
    Zr3    O115      1.02127      .   S
    Zr56   O115      1.02127      .   S
    Zr3    O116      0.96959      .   S
    Zr66   O116      0.96959      .   S
    Zr3    O117      0.96916  1_554   S
    Zr113  O117      0.96916      .   S
    Zr91   O118      0.63088  1_554   S
    Zr44   O118      0.63088      .   S
    Zr32   O119      0.64642      .   S
    Zr62   O119      0.64642      .   S
    Zr32   O120      0.63088      .   S
    Zr61   O120      0.63088  1_556   S
    Zr42   O121      0.64563      .   S
    Zr88   O121      0.64563      .   S
    Zr42   O122      0.63249      .   S
    Zr87   O122      0.63249  1_556   S
    Zr20   O123      0.48752      .   S
    Zr56   O123      0.48752      .   S
    Zr83   O124      0.64704      .   S
    Zr41   O124      0.64704      .   S
    Zr83   O125      0.96821      .   S
    Zr11   O125      0.96821  1_556   S
    Zr66   O126      0.64512      .   S
    Zr34   O126      0.64512      .   S
    Zr88   O127      0.96971      .   S
    Zr0    O127      0.96971  1_545   S
    Zr62   O128      0.96295      .   S
    Zr1    O128      0.96295  1_545   S
    Zr54   O129      0.48744      .   S
    Zr18   O129      0.48744      .   S
    Zr54   O130      0.39832      .   S
    Zr16   O130      0.39832  1_465   S
    Zr41   O131      0.63048      .   S
    Zr82   O131      0.63048      .   S
    Zr93   O132      1.06575      .   S
    Zr2    O132      1.06575      .   S
    Zr93   O133      0.63158      .   S
    Zr45   O133      0.63158      .   S
    Zr34   O134      0.63231      .   S
    Zr65   O134      0.63231      .   S
    Zr59   O135      1.07382      .   S
    Zr2    O135      1.07382      .   S
    Zr59   O136      0.63215      .   S
    Zr31   O136      0.63215      .   S
    Zr2    O137      1.07314      .   S
    Zr82   O137      1.07314      .   S
    Zr2    O138      1.06523      .   S
    Zr65   O138      1.06523      .   S
    Zr0    O139      0.96963      .   S
    Zr75   O139      0.96963      .   S
    Zr1    O140      1.01776  1_545   S
    Zr55   O140      1.01776      .   S
    Zr1    O141      0.96517      .   S
    Zr109  O141      0.96517      .   S
    Zr45   O142      0.64586      .   S
    Zr94   O142      0.64586      .   S
    Zr31   O143      0.64583      .   S
    Zr60   O143      0.64583      .   S
    Zr19   O144      0.48752      .   S
    Zr55   O144      0.48752      .   S
    Zr109  O145      0.64578      .   S
    Zr51   O145      0.64578      .   S
    Zr75   O146      0.64574      .   S
    Zr37   O146      0.64574      .   S
    Zr60   O147      0.96964      .   S
    Zr4    O147      0.96964      .   S
    Zr94   O148      0.96415      .   S
    Zr5    O148      0.96415      .   S
    Zr70   O149      0.48753      .   S
    Zr22   O149      0.48753      .   S
    Zr70   O150      1.01846      .   S
    Zr5    O150      1.01846      .   S
    Zr37   O151      0.63222      .   S
    Zr74   O151      0.63222      .   S
    Zr51   O152      0.63151      .   S
    Zr108  O152      0.63151      .   S
    Zr80   O153      1.06613      .   S
    Zr6    O153      1.06613  1_445   S
    Zr80   O154      0.63229      .   S
    Zr40   O154      0.63229      .   S
    Zr67   O155      1.07111      .   S
    Zr6    O155      1.07111  1_545   S
    Zr67   O156      0.62995      .   S
    Zr35   O156      0.62995      .   S
    Zr5    O157      1.01798      .   S
    Zr69   O157      1.01798      .   S
    Zr5    O158      0.96420      .   S
    Zr77   O158      0.96420      .   S
    Zr4    O159      0.96843      .   S
    Zr103  O159      0.96843      .   S
    Zr6    O160      1.07409      .   S
    Zr74   O160      1.07409      .   S
    Zr6    O161      1.06371  1_455   S
    Zr108  O161      1.06371      .   S
    Zr40   O162      0.64511      .   S
    Zr81   O162      0.64511      .   S
    Zr35   O163      0.64749      .   S
    Zr68   O163      0.64749      .   S
    Zr21   O164      0.48747      .   S
    Zr69   O164      0.48747      .   S
    Zr77   O165      0.64643      .   S
    Zr38   O165      0.64643      .   S
    Zr103  O166      0.64582      .   S
    Zr48   O166      0.64582      .   S
    Zr81   O167      0.96969      .   S
    Zr7    O167      0.96969      .   S
    Zr68   O168      0.96887      .   S
    Zr15   O168      0.96887  1_545   S
    Zr71   O169      0.48795      .   S
    Zr23   O169      0.48795      .   S
    Zr71   O170      1.02124  1_455   S
    Zr7    O170      1.02124  1_565   S
    Zr48   O171      0.63226      .   S
    Zr102  O171      0.63226      .   S
    Zr38   O172      0.63104      .   S
    Zr76   O172      0.63104      .   S
    Zr106  O173      1.06543      .   S
    Zr17   O173      1.06543      .   S
    Zr106  O174      0.63117      .   S
    Zr50   O174      0.63117      .   S
    Zr72   O175      1.07582      .   S
    Zr17   O175      1.07582      .   S
    Zr72   O176      0.63223      .   S
    Zr36   O176      0.63223      .   S
    Zr7    O177      1.02134      .   S
    Zr101  O177      1.02134  1_455   S
    Zr7    O178      0.97000  1_565   S
    Zr98   O178      0.97000      .   S
    Zr17   O179      1.07547      .   S
    Zr102  O179      1.07547      .   S
    Zr17   O180      1.06530      .   S
    Zr76   O180      1.06530      .   S
    Zr15   O181      0.96858      .   S
    Zr111  O181      0.96858      .   S
    Zr50   O182      0.64586      .   S
    Zr107  O182      0.64586      .   S
    Zr36   O183      0.64553      .   S
    Zr73   O183      0.64553      .   S
    Zr29   O184      0.48751      .   S
    Zr101  O184      0.48751      .   S
    Zr98   O185      0.64717      .   S
    Zr47   O185      0.64717      .   S
    Zr111  O186      0.64567      .   S
    Zr52   O186      0.64567      .   S
    Zr73   O187      0.96864      .   S
    Zr12   O187      0.96864      .   S
    Zr107  O188      0.96430      .   S
    Zr13   O188      0.96430      .   S
    Zr99   O189      0.48745      .   S
    Zr27   O189      0.48745      .   S
    Zr99   O190      1.01743      .   S
    Zr13   O190      1.01743      .   S
    Zr47   O191      0.63038      .   S
    Zr97   O191      0.63038      .   S
    Zr78   O192      1.06398      .   S
    Zr14   O192      1.06398  1_655   S
    Zr78   O193      0.63150      .   S
    Zr39   O193      0.63150      .   S
    Zr52   O194      0.63209      .   S
    Zr110  O194      0.63209      .   S
    Zr104  O195      1.07389      .   S
    Zr14   O195      1.07389      .   S
    Zr104  O196      0.63245      .   S
    Zr49   O196      0.63245      .   S
    Zr14   O197      1.06542  1_565   S
    Zr97   O197      1.06542      .   S
    Zr14   O198      1.06985  1_665   S
    Zr110  O198      1.06985      .   S
    Zr13   O199      1.01850      .   S
    Zr100  O199      1.01850      .   S
    Zr13   O200      0.96453      .   S
    Zr64   O200      0.96453      .   S
    Zr12   O201      0.96977      .   S
    Zr90   O201      0.96977      .   S
    Zr39   O202      0.64527      .   S
    Zr79   O202      0.64527      .   S
    Zr49   O203      0.64582      .   S
    Zr105  O203      0.64582      .   S
    Zr28   O204      0.48755      .   S
    Zr100  O204      0.48755      .   S
    Zr64   O205      0.64592      .   S
    Zr33   O205      0.64592      .   S
    Zr90   O206      0.64593      .   S
    Zr43   O206      0.64593      .   S
    Zr105  O207      0.96958      .   S
    Zr8    O207      0.96958      .   S
    Zr79   O208      0.96481      .   S
    Zr9    O208      0.96481      .   S
    Zr85   O209      0.48820      .   S
    Zr25   O209      0.48820      .   S
    Zr85   O210      1.01548  1_455   S
    Zr8    O210      1.01548  1_565   S
    Zr43   O211      0.63213      .   S
    Zr89   O211      0.63213      .   S
    Zr33   O212      0.63141      .   S
    Zr63   O212      0.63141      .   S
    Zr95   O213      1.06789      .   S
    Zr10   O213      1.06789      .   S
    Zr95   O214      0.63214      .   S
    Zr46   O214      0.63214      .   S
    Zr112  O215      1.06631      .   S
    Zr10   O215      1.06631      .   S
    Zr112  O216      0.63044      .   S
    Zr53   O216      0.63044      .   S
    Zr8    O217      0.96971  1_565   S
    Zr58   O217      0.96971      .   S
    Zr9    O218      1.01789      .   S
    Zr84   O218      1.01789      .   S
    Zr9    O219      0.96351  1_565   S
    Zr92   O219      0.96351      .   S
    Zr10   O220      1.07289      .   S
    Zr89   O220      1.07289      .   S
    Zr10   O221      1.06548      .   S
    Zr63   O221      1.06548      .   S
    Zr46   O222      0.64541      .   S
    Zr96   O222      0.64541      .   S
    Zr53   O223      0.64714      .   S
    Zr113  O223      0.64714      .   S
    Zr24   O224      0.48744      .   S
    Zr84   O224      0.48744      .   S
    Zr92   O225      0.64637      .   S
    Zr44   O225      0.64637      .   S
    Zr58   O226      0.64557      .   S
    Zr30   O226      0.64557      .   S
    Zr96   O227      0.96883      .   S
    Zr11   O227      0.96883      .   S
    Zr86   O228      0.48746      .   S
    Zr26   O228      0.48746      .   S
    Zr86   O229      1.02261      .   S
    Zr11   O229      1.02261      .   S
    Zr54   O230      1.02448  1_655   S
    Zr0    O230      1.02448      .   S
    Zr54   O231      1.01907      .   S
    Zr1    O231      1.01907      .   S
    Zr55   O232      1.01965  1_655   S
    Zr0    O232      1.01965  1_545   S
    Zr55   O233      1.04265  1_655   S
    Zr6    O233      1.04265  1_545   S
    Zr56   O234      1.03912      .   S
    Zr2    O234      1.03912      .   S
    Zr56   O235      1.02380      .   S
    Zr11   O235      1.02380  1_556   S
    Zr69   O236      1.02372      .   S
    Zr4    O236      1.02372      .   S
    Zr69   O237      1.03631      .   S
    Zr17   O237      1.03631      .   S
    Zr70   O238      1.04081      .   S
    Zr2    O238      1.04081      .   S
    Zr70   O239      1.02027      .   S
    Zr4    O239      1.02027      .   S
    Zr71   O240      1.04060      .   S
    Zr6    O240      1.04060      .   S
    Zr71   O241      1.02450      .   S
    Zr15   O241      1.02450      .   S
    Zr84   O242      1.02444  1_455   S
    Zr8    O242      1.02444      .   S
    Zr85   O243      1.02353      .   S
    Zr9    O243      1.02353  1_565   S
    Zr85   O244      1.04271  1_455   S
    Zr14   O244      1.04271  1_565   S
    Zr86   O245      1.02339      .   S
    Zr3    O245      1.02339  1_554   S
    Zr86   O246      1.03927      .   S
    Zr10   O246      1.03927      .   S
    Zr99   O247      1.02373      .   S
    Zr12   O247      1.02373      .   S
    Zr99   O248      1.03592      .   S
    Zr17   O248      1.03592      .   S
    Zr100  O249      1.04226      .   S
    Zr10   O249      1.04226      .   S
    Zr100  O250      1.02025      .   S
    Zr12   O250      1.02025      .   S
    Zr101  O251      1.03983  1_455   S
    Zr14   O251      1.03983      .   S
    Zr101  O252      1.02414      .   S
    Zr15   O252      1.02414  1_545   S
    N253   O254      1.07704      .   S
    Zr46   O254      1.82651      .   S
    N253   O255      1.07660      .   S
    Zr47   O255      1.82607      .   S
    N256   O257      1.07343      .   S
    Zr44   O257      1.82073  1_556   S
    N256   O258      1.07368      .   S
    Zr45   O258      1.82118      .   S
    N259   O260      1.07359      .   S
    Zr51   O260      1.82103      .   S
    N259   O261      1.07350      .   S
    Zr50   O261      1.82088      .   S
    N262   O263      1.07343      .   S
    Zr32   O263      1.82070  1_554   S
    N262   O264      1.07366      .   S
    Zr33   O264      1.82114      .   S
    N265   O266      1.07685      .   S
    Zr52   O266      1.82647      .   S
    N265   O267      1.07721      .   S
    Zr53   O267      1.82680      .   S
    N268   O269      1.07664      .   S
    Zr41   O269      1.82634      .   S
    N268   O270      1.07695      .   S
    Zr40   O270      1.82632      .   S
    N271   O272      1.07648      .   S
    Zr35   O272      1.82605      .   S
    N271   O273      1.07699      .   S
    Zr34   O273      1.82640      .   S
    N274   O275      1.07355      .   S
    Zr39   O275      1.82094      .   S
    N274   O276      1.07344      .   S
    Zr38   O276      1.82080      .   S
    N277   O278      1.07729      .   S
    Zr30   O278      1.82701  1_556   S
    N277   O279      1.07747      .   S
    Zr31   O279      1.82748      .   S
    N280   O281      1.07744      .   S
    Zr43   O281      1.82743      .   S
    N280   O282      1.07732      .   S
    Zr42   O282      1.82702  1_554   S
    N283   O284      1.07751      .   S
    Zr37   O284      1.82755      .   S
    N283   O285      1.07741      .   S
    Zr36   O285      1.82724      .   S
    N286   O287      1.07754      .   S
    Zr49   O287      1.82763      .   S
    N286   O288      1.07745      .   S
    Zr48   O288      1.82730      .   S
