# CIF file generated by openbabel 2.4.90, see http://openbabel.sf.net
data_I
_chemical_name_common ''
_cell_length_a 15.583
_cell_length_b 17.778
_cell_length_c 18.307
_cell_angle_alpha 112.399
_cell_angle_beta 89.999
_cell_angle_gamma 89.946
_space_group_name_H-M_alt 'P 1'
_space_group_name_Hall 'P 1'
loop_
    _symmetry_equiv_pos_as_xyz
    x,y,z
loop_
    _atom_site_label
    _atom_site_type_symbol
    _atom_site_fract_x
    _atom_site_fract_y
    _atom_site_fract_z
    _atom_site_occupancy
    Zr0     Zr   0.50068   0.49779   0.16613   1.000
    Zr1     Zr   0.40376   0.50091   0.00296   1.000
    Zr2     Zr   0.59612   0.49775   0.33358   1.000
    Zr3     Zr   0.40056   0.49956   0.33311   1.000
    Zr4     Zr   0.49991   0.50218   0.83374   1.000
    Zr5     Zr   0.59975   0.49892   0.99692   1.000
    Zr6     Zr   0.40397   0.50204   0.66649   1.000
    Zr7     Zr   0.59951   0.50081   0.66636   1.000
    Zr8     Zr   0.49997   0.50002   0.49993   1.000
    N9      N    0.73035   0.23228   0.74756   1.000
    N10     N    0.25191   0.24791   0.08317   1.000
    N11     N    0.75174   0.25195   0.41629   1.000
    N12     N    0.74839   0.75203   0.91626   1.000
    N13     N    0.23048   0.26761   0.75237   1.000
    N14     N    0.77080   0.73268   0.24825   1.000
    N15     N    0.27035   0.76710   0.25160   1.000
    N16     N    0.24837   0.74792   0.58377   1.000
    N17     N    0.74936   0.24780   0.08259   1.000
    N18     N    0.25073   0.75203   0.91745   1.000
    N19     N    0.24997   0.25157   0.41729   1.000
    N20     N    0.75013   0.74842   0.58262   1.000
    Zr21    Zr   0.00027   0.99996   0.49285   1.000
    O22     O    0.10882   0.09738   0.26958   1.000
    O23     O    0.09669   0.10812   0.60415   1.000
    O24     O    0.89156   0.90253   0.72311   1.000
    O25     O    0.10745   0.90075   0.55689   1.000
    O26     O    0.11591   0.90862   0.39074   1.000
    O27     O    0.90425   0.89196   0.38902   1.000
    O28     O    0.89289   0.09912   0.43608   1.000
    O29     O    0.89626   0.89757   0.55654   1.000
    O30     O    0.10405   0.10241   0.43623   1.000
    O31     O    0.89574   0.10039   0.26881   1.000
    O32     O    0.88474   0.09107   0.60167   1.000
    O33     O    0.10457   0.89951   0.72402   1.000
    C34     C    0.37794   0.39506   0.53302   1.000
    O35     O    0.37414   0.42719   0.58059   1.000
    O36     O    0.33500   0.34672   0.49395   1.000
    O37     O    0.42239   0.42019   0.51418   1.000
    C38     C    0.50338   0.42322   0.03547   1.000
    O39     O    0.47846   0.45001   0.02933   1.000
    O40     O    0.50269   0.44923   0.07012   1.000
    O41     O    0.52746   0.44951   0.02782   1.000
    C42     C    0.49594   0.42280   0.37027   1.000
    O43     O    0.47234   0.44933   0.36279   1.000
    O44     O    0.52123   0.44888   0.36291   1.000
    O45     O    0.49719   0.44945   0.40449   1.000
    C46     C    0.35536   0.41164   0.19675   1.000
    O47     O    0.32053   0.35660   0.15838   1.000
    O48     O    0.36309   0.43270   0.24598   1.000
    O49     O    0.39827   0.43891   0.17753   1.000
    C50     C    0.38406   0.60991   0.13779   1.000
    O51     O    0.34594   0.66284   0.17619   1.000
    O52     O    0.42643   0.58159   0.15567   1.000
    O53     O    0.37900   0.57829   0.08974   1.000
    C54     C    0.50364   0.57731   0.62958   1.000
    O55     O    0.47849   0.55115   0.63699   1.000
    O56     O    0.52737   0.55084   0.63696   1.000
    O57     O    0.50249   0.55064   0.59535   1.000
    C58     C    0.65110   0.58073   0.13450   1.000
    O59     O    0.69152   0.63167   0.17289   1.000
    O60     O    0.60611   0.55471   0.15398   1.000
    O61     O    0.64211   0.56119   0.08498   1.000
    C62     C    0.64497   0.58868   0.80176   1.000
    O63     O    0.67979   0.64359   0.84044   1.000
    O64     O    0.60218   0.56118   0.82123   1.000
    O65     O    0.63713   0.56779   0.75283   1.000
    C66     C    0.62197   0.39168   0.19898   1.000
    O67     O    0.57781   0.41736   0.18015   1.000
    O68     O    0.66472   0.34323   0.15969   1.000
    O69     O    0.62572   0.42333   0.24689   1.000
    C70     C    0.49878   0.57411   0.29605   1.000
    O71     O    0.49934   0.54770   0.26183   1.000
    O72     O    0.52320   0.54769   0.30369   1.000
    O73     O    0.47431   0.54814   0.30358   1.000
    C74     C    0.62213   0.60483   0.46703   1.000
    O75     O    0.66509   0.65321   0.50605   1.000
    O76     O    0.57764   0.57976   0.48583   1.000
    O77     O    0.62594   0.57264   0.41946   1.000
    C78     C    0.37809   0.60805   0.80119   1.000
    O79     O    0.33535   0.65654   0.84044   1.000
    O80     O    0.37436   0.57643   0.75324   1.000
    O81     O    0.42237   0.58242   0.81995   1.000
    C82     C    0.61793   0.39023   0.86173   1.000
    O83     O    0.57500   0.41847   0.84409   1.000
    O84     O    0.62365   0.42184   0.90972   1.000
    O85     O    0.65558   0.33702   0.82319   1.000
    C86     C    0.49986   0.57675   0.96456   1.000
    O87     O    0.47588   0.55042   0.97215   1.000
    O88     O    0.49992   0.55073   0.92984   1.000
    O89     O    0.52488   0.54992   0.97064   1.000
    C90     C    0.35433   0.58618   0.46919   1.000
    O91     O    0.31855   0.64047   0.50790   1.000
    O92     O    0.39727   0.55871   0.48831   1.000
    O93     O    0.36250   0.56574   0.42012   1.000
    C94     C    0.64561   0.41379   0.53048   1.000
    O95     O    0.63750   0.43438   0.57950   1.000
    O96     O    0.60264   0.44123   0.51139   1.000
    O97     O    0.68145   0.35947   0.49189   1.000
    C98     C    0.50192   0.42587   0.70360   1.000
    O99     O    0.50130   0.45229   0.73789   1.000
    O100    O    0.47732   0.45225   0.69607   1.000
    O101    O    0.52620   0.45194   0.69604   1.000
    C102    C    0.35128   0.41887   0.86596   1.000
    O103    O    0.31046   0.36817   0.82766   1.000
    O104    O    0.39567   0.44502   0.84630   1.000
    O105    O    0.36076   0.43841   0.91535   1.000
loop_
    _geom_bond_atom_site_label_1
    _geom_bond_atom_site_label_2
    _geom_bond_distance
    _geom_bond_site_symmetry_2
    _ccdc_geom_bond_type
    Zr21   O22       5.28844  1_565   S
    N10    O22       5.54528      .   S
    Zr21   O23       2.66954  1_565   S
    N13    O23       3.72785      .   S
    Zr21   O24       5.40469  1_455   S
    N12    O24       5.64444      .   S
    Zr21   O25       2.97422      .   S
    N16    O25       3.66800      .   S
    Zr21   O26       2.65705      .   S
    N15    O26       3.70330      .   S
    Zr21   O27       2.60044  1_455   S
    N14    O27       3.66520      .   S
    Zr21   O28       2.89455  1_465   S
    N11    O28       3.61808      .   S
    Zr21   O29       2.98714  1_455   S
    N20    O29       3.66340      .   S
    Zr21   O30       2.90705  1_565   S
    N19    O30       3.61038      .   S
    Zr21   O31       5.31384  1_465   S
    N17    O31       5.52210      .   S
    Zr21   O32       2.71446  1_465   S
    N9     O32       3.75531      .   S
    Zr21   O33       5.43101      .   S
    N18    O33       5.62732      .   S
    C34    O35       0.84210      .   S
    Zr6    O35       1.69297      .   S
    C34    O36       1.10927      .   S
    N19    O36       2.18666      .   S
    C34    O37       0.95742      .   S
    Zr8    O37       1.95671      .   S
    C38    O39       0.65634      .   S
    Zr1    O39       1.65469      .   S
    C38    O40       0.62669      .   S
    Zr0    O40       1.63677      .   S
    C38    O41       0.65516      .   S
    Zr5    O41       1.65563  1_556   S
    C42    O43       0.65218      .   S
    Zr3    O43       1.64670      .   S
    C42    O44       0.66060      .   S
    Zr2    O44       1.66204      .   S
    C42    O45       0.62548      .   S
    Zr8    O45       1.63272      .   S
    C46    O47       1.10566      .   S
    N10    O47       2.17933      .   S
    C46    O48       0.84260      .   S
    Zr3    O48       1.68960      .   S
    C46    O49       0.96774      .   S
    Zr0    O49       1.96364      .   S
    C50    O51       1.10800      .   S
    N15    O51       2.18497      .   S
    C50    O52       0.96004      .   S
    Zr0    O52       1.95156      .   S
    C50    O53       0.84807      .   S
    Zr1    O53       1.70247      .   S
    C54    O55       0.66087      .   S
    Zr6    O55       1.66238      .   S
    C54    O56       0.65154      .   S
    Zr7    O56       1.64544      .   S
    C54    O57       0.62555      .   S
    Zr8    O57       1.63242      .   S
    C58    O59       1.10759      .   S
    N14    O59       2.18417      .   S
    C58    O60       0.97936      .   S
    Zr0    O60       1.98678      .   S
    C58    O61       0.84989      .   S
    Zr5    O61       1.70335  1_556   S
    C62    O63       1.10593      .   S
    N12    O63       2.17956      .   S
    C62    O64       0.97163      .   S
    Zr4    O64       1.96934      .   S
    C62    O65       0.83778      .   S
    Zr7    O65       1.68287      .   S
    C66    O67       0.95919      .   S
    Zr0    O67       1.95748      .   S
    C66    O68       1.10901      .   S
    N17    O68       2.18646      .   S
    C66    O69       0.84456      .   S
    Zr2    O69       1.69719      .   S
    C70    O71       0.62354      .   S
    Zr0    O71       1.63478      .   S
    C70    O72       0.65942      .   S
    Zr2    O72       1.65743      .   S
    C70    O73       0.65302      .   S
    Zr3    O73       1.64814      .   S
    C74    O75       1.10941      .   S
    N20    O75       2.18685      .   S
    C74    O76       0.95674      .   S
    Zr8    O76       1.95539      .   S
    C74    O77       0.84234      .   S
    Zr2    O77       1.69304      .   S
    C78    O79       1.10895      .   S
    N18    O79       2.18637      .   S
    C78    O80       0.84489      .   S
    Zr6    O80       1.69773      .   S
    C78    O81       0.95941      .   S
    Zr4    O81       1.95700      .   S
    C82    O83       0.96263      .   S
    Zr4    O83       1.95746      .   S
    C82    O84       0.84829      .   S
    Zr5    O84       1.70192      .   S
    C82    O85       1.10774      .   S
    N9     O85       2.18475      .   S
    C86    O87       0.65418      .   S
    Zr1    O87       1.65410  1_554   S
    C86    O88       0.62758      .   S
    Zr4    O88       1.63795      .   S
    C86    O89       0.65715      .   S
    Zr5    O89       1.65690      .   S
    C90    O91       1.10565      .   S
    N16    O91       2.17905      .   S
    C90    O92       0.96871      .   S
    Zr8    O92       1.96490      .   S
    C90    O93       0.84042      .   S
    Zr3    O93       1.68632      .   S
    C94    O95       0.83967      .   S
    Zr7    O95       1.68556      .   S
    C94    O96       0.96839      .   S
    Zr8    O96       1.96462      .   S
    C94    O97       1.10573      .   S
    N11    O97       2.17918      .   S
    C98    O99       0.62444      .   S
    Zr4    O99       1.63718      .   S
    C98    O100      0.65937      .   S
    Zr6    O100      1.65735      .   S
    C98    O101      0.65303      .   S
    Zr7    O101      1.64818      .   S
    C102   O103      1.10820      .   S
    N13    O103      2.18535      .   S
    C102   O104      0.97588      .   S
    Zr4    O104      1.97623      .   S
    C102   O105      0.84887      .   S
    Zr1    O105      1.70276  1_554   S
