# CIF file generated by openbabel 2.4.90, see http://openbabel.sf.net
data_I
_chemical_name_common ''
_cell_length_a 25.575
_cell_length_b 12.77
_cell_length_c 17.715
_cell_angle_alpha 89.717
_cell_angle_beta 105.363
_cell_angle_gamma 90.194
_space_group_name_H-M_alt 'P 1'
_space_group_name_Hall 'P 1'
loop_
    _symmetry_equiv_pos_as_xyz
    x,y,z
loop_
    _atom_site_label
    _atom_site_type_symbol
    _atom_site_fract_x
    _atom_site_fract_y
    _atom_site_fract_z
    _atom_site_occupancy
    C0      C    0.19044   0.68947   0.94529   1.000
    C1      C    0.69042   0.68947   0.94529   1.000
    C2      C    0.17420   0.66726   0.01312   1.000
    C3      C    0.67419   0.66726   0.01312   1.000
    C4      C    0.21151   0.63149   0.08058   1.000
    C5      C    0.71150   0.63149   0.08058   1.000
    C6      C    0.26531   0.61320   0.08132   1.000
    C7      C    0.76530   0.61319   0.08132   1.000
    C8      C    0.28117   0.63164   0.01288   1.000
    C9      C    0.78116   0.63164   0.01288   1.000
    C10     C    0.24459   0.67082   0.94609   1.000
    C11     C    0.74458   0.67082   0.94609   1.000
    C12     C    0.23543   0.04034   0.92249   1.000
    C13     C    0.73542   0.04034   0.92249   1.000
    C14     C    0.27629   0.96537   0.94573   1.000
    C15     C    0.77628   0.96537   0.94573   1.000
    C16     C    0.29005   0.92617   0.02215   1.000
    C17     C    0.79004   0.92617   0.02215   1.000
    C18     C    0.01470   0.95880   0.93439   1.000
    C19     C    0.51470   0.95879   0.93439   1.000
    C20     C    0.46290   0.99970   0.92661   1.000
    C21     C    0.96290   0.99970   0.92661   1.000
    C22     C    0.44844   0.03974   0.99130   1.000
    C23     C    0.94844   0.03974   0.99130   1.000
    C24     C    0.06103   0.19196   0.55346   1.000
    C25     C    0.56102   0.19196   0.55346   1.000
    C26     C    0.07767   0.16932   0.48628   1.000
    C27     C    0.57767   0.16932   0.48628   1.000
    C28     C    0.04083   0.13281   0.41880   1.000
    C29     C    0.54082   0.13281   0.41880   1.000
    C30     C    0.48700   0.11315   0.41774   1.000
    C31     C    0.98700   0.11315   0.41774   1.000
    C32     C    0.47095   0.13138   0.48597   1.000
    C33     C    0.97095   0.13139   0.48597   1.000
    C34     C    0.00694   0.17239   0.55229   1.000
    C35     C    0.50693   0.17239   0.55229   1.000
    C36     C    0.01340   0.54066   0.57724   1.000
    C37     C    0.51339   0.54067   0.57720   1.000
    C38     C    0.47184   0.46697   0.55310   1.000
    C39     C    0.97183   0.46697   0.55310   1.000
    C40     C    0.45866   0.42742   0.47706   1.000
    C41     C    0.95865   0.42742   0.47706   1.000
    C42     C    0.23527   0.46313   0.56716   1.000
    C43     C    0.73525   0.46313   0.56716   1.000
    C44     C    0.28717   0.50294   0.57340   1.000
    C45     C    0.78715   0.50294   0.57343   1.000
    C46     C    0.30137   0.53870   0.50711   1.000
    C47     C    0.80136   0.53870   0.50711   1.000
    C48     C    0.30950   0.31045   0.05470   1.000
    C49     C    0.80949   0.31045   0.05470   1.000
    C50     C    0.32574   0.33267   0.98687   1.000
    C51     C    0.82573   0.33267   0.98687   1.000
    C52     C    0.28844   0.36844   0.91940   1.000
    C53     C    0.78843   0.36844   0.91940   1.000
    C54     C    0.23463   0.38670   0.91865   1.000
    C55     C    0.73462   0.38670   0.91865   1.000
    C56     C    0.21877   0.36823   0.98709   1.000
    C57     C    0.71876   0.36823   0.98709   1.000
    C58     C    0.25535   0.32908   0.05389   1.000
    C59     C    0.75534   0.32908   0.05389   1.000
    C60     C    0.26378   0.96007   0.07743   1.000
    C61     C    0.76377   0.96006   0.07743   1.000
    C62     C    0.22299   0.03505   0.05420   1.000
    C63     C    0.72298   0.03504   0.05420   1.000
    C64     C    0.20891   0.07400   0.97767   1.000
    C65     C    0.70890   0.07400   0.97767   1.000
    C66     C    0.48510   0.04102   0.06560   1.000
    C67     C    0.98509   0.04102   0.06567   1.000
    C68     C    0.03692   0.00000   0.07343   1.000
    C69     C    0.53691   0.00000   0.07343   1.000
    C70     C    0.05135   0.96012   0.00874   1.000
    C71     C    0.55135   0.96012   0.00874   1.000
    C72     C    0.43894   0.80801   0.44652   1.000
    C73     C    0.93893   0.80801   0.44652   1.000
    C74     C    0.42230   0.83063   0.51370   1.000
    C75     C    0.92229   0.83063   0.51371   1.000
    C76     C    0.45915   0.86711   0.58119   1.000
    C77     C    0.95914   0.86711   0.58119   1.000
    C78     C    0.01297   0.88674   0.58226   1.000
    C79     C    0.51296   0.88674   0.58226   1.000
    C80     C    0.02902   0.86855   0.51403   1.000
    C81     C    0.52902   0.86855   0.51403   1.000
    C82     C    0.49303   0.82757   0.44770   1.000
    C83     C    0.99302   0.82757   0.44770   1.000
    F84     F    0.37086   0.81315   0.51575   1.000
    F85     F    0.87085   0.81315   0.51570   1.000
    F86     F    0.44249   0.88027   0.64678   1.000
    F87     F    0.94249   0.88027   0.64678   1.000
    F88     F    0.08052   0.88889   0.51266   1.000
    C89     C    0.48658   0.45932   0.42277   1.000
    C90     C    0.98657   0.45932   0.42277   1.000
    C91     C    0.02814   0.53302   0.44690   1.000
    C92     C    0.52813   0.53302   0.44690   1.000
    C93     C    0.04132   0.57257   0.52295   1.000
    C94     C    0.54131   0.57257   0.52295   1.000
    C95     C    0.26469   0.53685   0.43281   1.000
    C96     C    0.76467   0.53685   0.43281   1.000
    C97     C    0.21279   0.49704   0.42654   1.000
    C98     C    0.71277   0.49704   0.42654   1.000
    C99     C    0.19858   0.46128   0.49287   1.000
    C100    C    0.69857   0.46128   0.49287   1.000
    F101    F    0.12283   0.68444   0.01570   1.000
    F102    F    0.62282   0.68444   0.01570   1.000
    F103    F    0.19562   0.61757   0.14684   1.000
    F104    F    0.69561   0.61757   0.14684   1.000
    F105    F    0.33304   0.61337   0.01234   1.000
    F106    F    0.83303   0.61337   0.01234   1.000
    F107    F    0.26210   0.68897   0.88213   1.000
    F108    F    0.76209   0.68897   0.88213   1.000
    F109    F    0.30209   0.92915   0.89417   1.000
    F110    F    0.80209   0.92915   0.89418   1.000
    F111    F    0.32939   0.85338   0.04333   1.000
    F112    F    0.82938   0.85338   0.04333   1.000
    F113    F    0.42670   0.00415   0.85602   1.000
    F114    F    0.92669   0.00415   0.85602   1.000
    F115    F    0.39822   0.07982   0.98101   1.000
    F116    F    0.89821   0.07982   0.98101   1.000
    F117    F    0.12911   0.18682   0.48423   1.000
    F118    F    0.62911   0.18682   0.48423   1.000
    F119    F    0.05749   0.11969   0.35321   1.000
    F120    F    0.55748   0.11969   0.35321   1.000
    F121    F    0.41945   0.11108   0.48733   1.000
    F122    F    0.91944   0.11108   0.48733   1.000
    F123    F    0.48889   0.19117   0.61551   1.000
    F124    F    0.98889   0.19117   0.61551   1.000
    F125    F    0.44455   0.43147   0.60330   1.000
    F126    F    0.94454   0.43147   0.60330   1.000
    F127    F    0.41831   0.35614   0.45610   1.000
    F128    F    0.91830   0.35614   0.45616   1.000
    F129    F    0.32371   0.51061   0.64360   1.000
    F130    F    0.82370   0.51061   0.64360   1.000
    F131    F    0.35161   0.57797   0.51574   1.000
    F132    F    0.85160   0.57797   0.51574   1.000
    F133    F    0.37712   0.31552   0.98430   1.000
    F134    F    0.87711   0.31553   0.98430   1.000
    F135    F    0.30436   0.38240   0.85317   1.000
    F136    F    0.80435   0.38240   0.85317   1.000
    F137    F    0.16692   0.38661   0.98765   1.000
    F138    F    0.66691   0.38661   0.98765   1.000
    F139    F    0.23787   0.31102   0.11789   1.000
    F140    F    0.73786   0.31102   0.11789   1.000
    F141    F    0.19760   0.07113   0.10617   1.000
    F142    F    0.69760   0.07114   0.10617   1.000
    F143    F    0.16909   0.14612   0.95651   1.000
    F144    F    0.66909   0.14612   0.95651   1.000
    F145    F    0.07322   0.99585   0.14396   1.000
    F146    F    0.57322   0.99585   0.14396   1.000
    F147    F    0.10159   0.92015   0.01901   1.000
    F148    F    0.60159   0.92014   0.01901   1.000
    F149    F    0.58051   0.88889   0.51266   1.000
    F150    F    0.01109   0.80881   0.38448   1.000
    F151    F    0.51109   0.80880   0.38448   1.000
    F152    F    0.05544   0.56850   0.39670   1.000
    F153    F    0.55543   0.56850   0.39670   1.000
    F154    F    0.08167   0.64384   0.54384   1.000
    F155    F    0.58166   0.64384   0.54384   1.000
    F156    F    0.17622   0.48937   0.35600   1.000
    F157    F    0.67620   0.48937   0.35600   1.000
    F158    F    0.14835   0.42200   0.48425   1.000
    F159    F    0.64834   0.42200   0.48425   1.000
loop_
    _geom_bond_atom_site_label_1
    _geom_bond_atom_site_label_2
    _geom_bond_distance
    _geom_bond_site_symmetry_2
    _ccdc_geom_bond_type
    C71    F148      1.35062      .   S
    C71    C69       1.39288  1_565   S
    C71    C19       1.39990  1_554   S
    C70    F147      1.35065      .   S
    C70    C68       1.39286  1_565   S
    C70    C18       1.39988  1_554   S
    F105   C8        1.35015      .   S
    F106   C9        1.35015      .   S
    C9     C7        1.39540      .   S
    C9     C11       1.39157  1_554   S
    C8     C6        1.39539      .   S
    C8     C10       1.39156  1_554   S
    C2     F101      1.34552      .   S
    C2     C4        1.39305      .   S
    C2     C0        1.39891  1_554   S
    C3     F102      1.34554      .   S
    C3     C5        1.39306      .   S
    C3     C1        1.39890  1_554   S
    C16    F111      1.34901      .   S
    C16    C60       1.39735      .   S
    C16    C14       1.39613  1_554   S
    C17    F112      1.34900      .   S
    C17    C61       1.39736      .   S
    C17    C15       1.39613  1_554   S
    C59    C49       1.40234      .   S
    C59    F140      1.34302      .   S
    C59    C57       1.39155  1_554   S
    C58    C48       1.40233      .   S
    C58    F139      1.34305      .   S
    C58    C56       1.39157  1_554   S
    C62    C60       1.39631  1_545   S
    C62    F141      1.34339      .   S
    C62    C64       1.39679  1_554   S
    C63    C61       1.39629  1_545   S
    C63    F142      1.34335      .   S
    C63    C65       1.39679  1_554   S
    C49    C51       1.39892  1_554   S
    C48    C50       1.39894  1_554   S
    C66    C69       1.39878      .   S
    C66    C22       1.39922  1_554   S
    C67    C68       1.39925  1_655   S
    C67    C23       1.40016  1_554   S
    C68    F145      1.34569  1_545   S
    C69    F146      1.34569  1_545   S
    C4     C6        1.39310      .   S
    C4     F103      1.35081      .   S
    C5     C7        1.39308      .   S
    C5     F104      1.35078      .   S
    F120   C29       1.35070      .   S
    F119   C28       1.35072      .   S
    F157   C98       1.35179      .   S
    F156   C97       1.35176      .   S
    F150   C83       1.34269  1_455   S
    F151   C82       1.34248      .   S
    F152   C91       1.34411      .   S
    F153   C92       1.34408      .   S
    C30    C29       1.39352      .   S
    C30    C32       1.39644      .   S
    C31    C28       1.39379  1_655   S
    C31    C33       1.39642      .   S
    C28    C26       1.39284      .   S
    C29    C27       1.39284      .   S
    C89    C92       1.39793      .   S
    C89    C40       1.39962      .   S
    C90    C91       1.39812  1_655   S
    C90    C41       1.39961      .   S
    C97    C95       1.39662      .   S
    C97    C99       1.39320      .   S
    C98    C96       1.39665      .   S
    C98    C100      1.39319      .   S
    C96    C47       1.39967      .   S
    C95    C46       1.39968      .   S
    C72    C82       1.39979      .   S
    C72    C74       1.39761      .   S
    C73    C83       1.39976      .   S
    C73    C75       1.39776      .   S
    C91    C93       1.39594      .   S
    C92    C94       1.39595      .   S
    C82    C81       1.38972      .   S
    C83    C80       1.38985  1_655   S
    F127   C40       1.35100      .   S
    F128   C41       1.35093      .   S
    C40    C38       1.39578      .   S
    C41    C39       1.39578      .   S
    F118   C27       1.34361      .   S
    F117   C26       1.34361      .   S
    F159   C100      1.34827      .   S
    F158   C99       1.34825      .   S
    C33    F122      1.34805      .   S
    C33    C34       1.38982  1_655   S
    C32    F121      1.34806      .   S
    C32    C35       1.38970      .   S
    C27    C25       1.39773      .   S
    C26    C24       1.39770      .   S
    C100   C43       1.39953      .   S
    C99    C42       1.39954      .   S
    C46    F131      1.34827      .   S
    C46    C44       1.39258      .   S
    C47    F132      1.34828      .   S
    C47    C45       1.39306      .   S
    F88    C80       1.34806      .   S
    F149   C81       1.34807      .   S
    C74    F84       1.34355      .   S
    C74    C76       1.39284      .   S
    C75    F85       1.34325      .   S
    C75    C77       1.39271      .   S
    C80    C78       1.39632      .   S
    C81    C79       1.39633      .   S
    C94    F155      1.35088      .   S
    C94    C37       1.39905      .   S
    C93    F154      1.35088      .   S
    C93    C36       1.39961      .   S
    C35    C25       1.39975      .   S
    C35    F123      1.34233      .   S
    C34    C24       1.39972      .   S
    C34    F124      1.34254  1_455   S
    C39    C36       1.39810  1_655   S
    C39    F126      1.34403      .   S
    C38    C37       1.39786      .   S
    C38    F125      1.34400      .   S
    C43    C45       1.39658      .   S
    C42    C44       1.39667      .   S
    C44    F129      1.34705      .   S
    C45    F130      1.34660      .   S
    C76    C79       1.39342      .   S
    C76    F86       1.35069      .   S
    C77    C78       1.39372  1_655   S
    C77    F87       1.35069      .   S
    F136   C53       1.35081      .   S
    F135   C52       1.35078      .   S
    F114   C21       1.34549  1_545   S
    F113   C20       1.34547  1_545   S
    F108   C11       1.34308      .   S
    F107   C10       1.34305      .   S
    F109   C14       1.34514      .   S
    F110   C15       1.34503      .   S
    C55    C53       1.39313      .   S
    C55    C57       1.39550      .   S
    C54    C52       1.39310      .   S
    C54    C56       1.39550      .   S
    C52    C50       1.39309      .   S
    C53    C51       1.39309      .   S
    C13    C15       1.39743  1_545   S
    C13    C65       1.39924      .   S
    C12    C14       1.39742  1_545   S
    C12    C64       1.39926      .   S
    C21    C18       1.39807  1_655   S
    C21    C23       1.39395  1_565   S
    C20    C19       1.39782      .   S
    C20    C22       1.39393  1_565   S
    C1     C11       1.40242      .   S
    C0     C10       1.40240      .   S
    F143   C64       1.35138      .   S
    F144   C65       1.35138      .   S
    F116   C23       1.35076      .   S
    F115   C22       1.35077      .   S
    F133   C50       1.34543      .   S
    F134   C51       1.34540      .   S
    C56    F137      1.35007      .   S
    C57    F138      1.35005      .   S
