# CIF file generated by openbabel 2.4.90, see http://openbabel.sf.net
data_I
_chemical_name_common ''
_cell_length_a 25.575
_cell_length_b 12.77
_cell_length_c 17.715
_cell_angle_alpha 89.717
_cell_angle_beta 105.363
_cell_angle_gamma 90.194
_space_group_name_H-M_alt 'P 1'
_space_group_name_Hall 'P 1'
loop_
    _symmetry_equiv_pos_as_xyz
    x,y,z
loop_
    _atom_site_label
    _atom_site_type_symbol
    _atom_site_fract_x
    _atom_site_fract_y
    _atom_site_fract_z
    _atom_site_occupancy
    Zn0     Zn   0.54256   0.74315   0.76641   1.000
    Zn1     Zn   0.12449   0.93777   0.79073   1.000
    Zn2     Zn   0.62448   0.93777   0.79073   1.000
    Zn3     Zn   0.20661   0.24796   0.73477   1.000
    Zn4     Zn   0.70660   0.24796   0.73477   1.000
    Zn5     Zn   0.12467   0.43999   0.70925   1.000
    Zn6     Zn   0.62466   0.43999   0.70925   1.000
    Zn7     Zn   0.45733   0.25680   0.23365   1.000
    Zn8     Zn   0.95732   0.25680   0.23365   1.000
    Zn9     Zn   0.37537   0.06221   0.20936   1.000
    Zn10    Zn   0.87536   0.06221   0.20936   1.000
    Zn11    Zn   0.29335   0.75213   0.26517   1.000
    Zn12    Zn   0.79334   0.75213   0.26517   1.000
    Zn13    Zn   0.37529   0.55998   0.29073   1.000
    Zn14    Zn   0.87528   0.55998   0.29073   1.000
    C15     C    0.19044   0.68947   0.94529   1.000
    C16     C    0.69042   0.68947   0.94529   1.000
    C17     C    0.17420   0.66726   0.01312   1.000
    C18     C    0.67419   0.66726   0.01312   1.000
    C19     C    0.21151   0.63149   0.08058   1.000
    C20     C    0.71150   0.63149   0.08058   1.000
    C21     C    0.26531   0.61320   0.08132   1.000
    C22     C    0.76530   0.61319   0.08132   1.000
    C23     C    0.28117   0.63164   0.01288   1.000
    C24     C    0.78116   0.63164   0.01288   1.000
    C25     C    0.24459   0.67082   0.94609   1.000
    C26     C    0.74458   0.67082   0.94609   1.000
    C27     C    0.15169   0.73969   0.87609   1.000
    C28     C    0.65168   0.73969   0.87609   1.000
    C29     C    0.30631   0.58026   0.15473   1.000
    C30     C    0.80630   0.58026   0.15473   1.000
    C31     C    0.21863   0.08480   0.84042   1.000
    Zn32    Zn   0.04257   0.74315   0.76641   1.000
    C33     C    0.71862   0.08480   0.84042   1.000
    C34     C    0.23543   0.04034   0.92249   1.000
    C35     C    0.73542   0.04034   0.92249   1.000
    C36     C    0.27629   0.96537   0.94573   1.000
    C37     C    0.77628   0.96537   0.94573   1.000
    C38     C    0.29005   0.92617   0.02215   1.000
    C39     C    0.79004   0.92617   0.02215   1.000
    C40     C    0.03381   0.91866   0.86644   1.000
    C41     C    0.53380   0.91866   0.86644   1.000
    C42     C    0.01470   0.95880   0.93439   1.000
    C43     C    0.51470   0.95879   0.93439   1.000
    C44     C    0.46290   0.99970   0.92661   1.000
    C45     C    0.96290   0.99970   0.92661   1.000
    C46     C    0.44844   0.03974   0.99130   1.000
    C47     C    0.94844   0.03974   0.99130   1.000
    C48     C    0.06103   0.19196   0.55346   1.000
    C49     C    0.56102   0.19196   0.55346   1.000
    C50     C    0.07767   0.16932   0.48628   1.000
    C51     C    0.57767   0.16932   0.48628   1.000
    C52     C    0.04083   0.13281   0.41880   1.000
    C53     C    0.54082   0.13281   0.41880   1.000
    C54     C    0.48700   0.11315   0.41774   1.000
    C55     C    0.98700   0.11315   0.41774   1.000
    C56     C    0.47095   0.13138   0.48597   1.000
    C57     C    0.97095   0.13139   0.48597   1.000
    C58     C    0.00694   0.17239   0.55229   1.000
    C59     C    0.50693   0.17239   0.55229   1.000
    C60     C    0.09909   0.24276   0.62260   1.000
    C61     C    0.59908   0.24276   0.62260   1.000
    C62     C    0.44599   0.07972   0.34456   1.000
    C63     C    0.94598   0.07973   0.34456   1.000
    C64     C    0.02990   0.58477   0.65914   1.000
    C65     C    0.52989   0.58478   0.65914   1.000
    C66     C    0.01340   0.54066   0.57724   1.000
    C67     C    0.51339   0.54067   0.57720   1.000
    C68     C    0.47184   0.46697   0.55310   1.000
    C69     C    0.97183   0.46697   0.55310   1.000
    C70     C    0.45866   0.42742   0.47706   1.000
    C71     C    0.95865   0.42742   0.47706   1.000
    C72     C    0.21624   0.42489   0.63591   1.000
    C73     C    0.71622   0.42489   0.63591   1.000
    C74     C    0.23527   0.46313   0.56716   1.000
    C75     C    0.73525   0.46313   0.56716   1.000
    C76     C    0.28717   0.50294   0.57340   1.000
    C77     C    0.78715   0.50294   0.57343   1.000
    C78     C    0.30137   0.53870   0.50711   1.000
    C79     C    0.80136   0.53870   0.50711   1.000
    C80     C    0.30950   0.31045   0.05470   1.000
    C81     C    0.80949   0.31045   0.05470   1.000
    C82     C    0.32574   0.33267   0.98687   1.000
    C83     C    0.82573   0.33267   0.98687   1.000
    C84     C    0.28844   0.36844   0.91940   1.000
    C85     C    0.78843   0.36844   0.91940   1.000
    C86     C    0.23463   0.38670   0.91865   1.000
    C87     C    0.73462   0.38670   0.91865   1.000
    C88     C    0.21877   0.36823   0.98709   1.000
    C89     C    0.71876   0.36823   0.98709   1.000
    C90     C    0.25535   0.32908   0.05389   1.000
    C91     C    0.75534   0.32908   0.05389   1.000
    C92     C    0.34823   0.26028   0.12394   1.000
    C93     C    0.84821   0.26028   0.12394   1.000
    C94     C    0.19364   0.41972   0.84526   1.000
    C95     C    0.69363   0.41972   0.84526   1.000
    C96     C    0.28085   0.91555   0.15952   1.000
    C97     C    0.78084   0.91555   0.15952   1.000
    C98     C    0.26378   0.96007   0.07743   1.000
    C99     C    0.76377   0.96006   0.07743   1.000
    O100    O    0.57777   0.84402   0.70246   1.000
    O101    O    0.42805   0.44879   0.29140   1.000
    O102    O    0.92804   0.44879   0.29142   1.000
    O103    O    0.99818   0.34057   0.32473   1.000
    C104    C    0.22299   0.03505   0.05420   1.000
    C105    C    0.72298   0.03504   0.05420   1.000
    C106    C    0.20891   0.07400   0.97767   1.000
    C107    C    0.70890   0.07400   0.97767   1.000
    C108    C    0.46596   0.08115   0.13359   1.000
    C109    C    0.96595   0.08115   0.13359   1.000
    C110    C    0.48510   0.04102   0.06560   1.000
    C111    C    0.98509   0.04102   0.06567   1.000
    C112    C    0.03692   0.00000   0.07343   1.000
    C113    C    0.53691   0.00000   0.07343   1.000
    C114    C    0.05135   0.96012   0.00874   1.000
    C115    C    0.55135   0.96012   0.00874   1.000
    C116    C    0.43894   0.80801   0.44652   1.000
    C117    C    0.93893   0.80801   0.44652   1.000
    C118    C    0.42230   0.83063   0.51370   1.000
    C119    C    0.92229   0.83063   0.51371   1.000
    C120    C    0.45915   0.86711   0.58119   1.000
    C121    C    0.95914   0.86711   0.58119   1.000
    C122    C    0.01297   0.88674   0.58226   1.000
    C123    C    0.51296   0.88674   0.58226   1.000
    C124    C    0.02902   0.86855   0.51403   1.000
    C125    C    0.52902   0.86855   0.51403   1.000
    C126    C    0.49303   0.82757   0.44770   1.000
    C127    C    0.99302   0.82757   0.44770   1.000
    C128    C    0.40087   0.75726   0.37730   1.000
    C129    C    0.90086   0.75726   0.37736   1.000
    C130    C    0.05395   0.92022   0.65540   1.000
    C131    C    0.55395   0.92022   0.65545   1.000
    F132    F    0.37086   0.81315   0.51575   1.000
    F133    F    0.87085   0.81315   0.51570   1.000
    F134    F    0.44249   0.88027   0.64678   1.000
    F135    F    0.94249   0.88027   0.64678   1.000
    F136    F    0.08052   0.88889   0.51266   1.000
    C137    C    0.47007   0.41520   0.34088   1.000
    C138    C    0.97006   0.41520   0.34088   1.000
    C139    C    0.48658   0.45932   0.42277   1.000
    C140    C    0.98657   0.45932   0.42277   1.000
    C141    C    0.02814   0.53302   0.44690   1.000
    C142    C    0.52813   0.53302   0.44690   1.000
    C143    C    0.04132   0.57257   0.52295   1.000
    C144    C    0.54131   0.57257   0.52295   1.000
    C145    C    0.28373   0.57511   0.36400   1.000
    C146    C    0.78372   0.57511   0.36407   1.000
    C147    C    0.26469   0.53685   0.43281   1.000
    C148    C    0.76467   0.53685   0.43281   1.000
    C149    C    0.21279   0.49704   0.42654   1.000
    C150    C    0.71277   0.49704   0.42654   1.000
    C151    C    0.19858   0.46128   0.49287   1.000
    C152    C    0.69857   0.46128   0.49287   1.000
    O153    O    0.16936   0.82189   0.85038   1.000
    O154    O    0.66935   0.82189   0.85038   1.000
    O155    O    0.10513   0.69789   0.85184   1.000
    O156    O    0.60512   0.69789   0.85184   1.000
    O157    O    0.31856   0.48802   0.17100   1.000
    O158    O    0.81855   0.48802   0.17100   1.000
    O159    O    0.33019   0.65638   0.20141   1.000
    O160    O    0.83018   0.65638   0.20141   1.000
    O161    O    0.17714   0.04980   0.79078   1.000
    O162    O    0.67712   0.04980   0.79078   1.000
    O163    O    0.24641   0.16093   0.82474   1.000
    O164    O    0.74640   0.16093   0.82474   1.000
    O165    O    0.07439   0.96804   0.85574   1.000
    O166    O    0.57438   0.96805   0.85574   1.000
    O167    O    0.50923   0.84045   0.82850   1.000
    O168    O    0.00000   0.84045   0.82856   1.000
    O169    O    0.08102   0.32497   0.64690   1.000
    O170    O    0.58101   0.32497   0.64696   1.000
    O171    O    0.14544   0.20103   0.64838   1.000
    O172    O    0.64543   0.20103   0.64830   1.000
    O173    O    0.43338   0.98750   0.32850   1.000
    O174    O    0.93337   0.98750   0.32850   1.000
    O175    O    0.42212   0.15597   0.29764   1.000
    O176    O    0.92212   0.15597   0.29764   1.000
    O177    O    0.07192   0.55118   0.70860   1.000
    O178    O    0.57191   0.55118   0.70860   1.000
    O179    O    0.50176   0.65938   0.67529   1.000
    O180    O    0.00000   0.65937   0.67500   1.000
    O181    O    0.17593   0.47456   0.64652   1.000
    O182    O    0.67592   0.47456   0.64652   1.000
    O183    O    0.24061   0.34677   0.67441   1.000
    O184    O    0.74060   0.34677   0.67441   1.000
    O185    O    0.33053   0.17813   0.14967   1.000
    O186    O    0.83052   0.17813   0.14967   1.000
    O187    O    0.39478   0.30209   0.14822   1.000
    O188    O    0.89477   0.30209   0.14822   1.000
    O189    O    0.18146   0.51198   0.82851   1.000
    O190    O    0.68144   0.51198   0.82851   1.000
    O191    O    0.16972   0.34365   0.79856   1.000
    O192    O    0.66970   0.34365   0.79856   1.000
    O193    O    0.32237   0.95067   0.20905   1.000
    O194    O    0.82236   0.95067   0.20905   1.000
    O195    O    0.25332   0.83908   0.17527   1.000
    O196    O    0.75331   0.83907   0.17527   1.000
    O197    O    0.42532   0.03185   0.14418   1.000
    O198    O    0.92531   0.03185   0.14418   1.000
    O199    O    0.99056   0.15930   0.17150   1.000
    O200    O    0.49055   0.15930   0.17150   1.000
    O201    O    0.41891   0.67500   0.35302   1.000
    O202    O    0.91890   0.67500   0.35302   1.000
    O203    O    0.35454   0.79909   0.35150   1.000
    O204    O    0.85453   0.79909   0.35152   1.000
    O205    O    0.06656   0.01245   0.67143   1.000
    O206    O    0.56655   0.01245   0.67143   1.000
    O207    O    0.07778   0.84402   0.70246   1.000
    O208    O    0.49818   0.34056   0.32473   1.000
    O209    O    0.32402   0.52541   0.35346   1.000
    O210    O    0.82401   0.52541   0.35346   1.000
    O211    O    0.25939   0.65327   0.32561   1.000
    O212    O    0.75938   0.65327   0.32561   1.000
    F213    F    0.12283   0.68444   0.01570   1.000
    F214    F    0.62282   0.68444   0.01570   1.000
    F215    F    0.19562   0.61757   0.14684   1.000
    F216    F    0.69561   0.61757   0.14684   1.000
    F217    F    0.33304   0.61337   0.01234   1.000
    F218    F    0.83303   0.61337   0.01234   1.000
    F219    F    0.26210   0.68897   0.88213   1.000
    F220    F    0.76209   0.68897   0.88213   1.000
    F221    F    0.30209   0.92915   0.89417   1.000
    F222    F    0.80209   0.92915   0.89418   1.000
    F223    F    0.32939   0.85338   0.04333   1.000
    F224    F    0.82938   0.85338   0.04333   1.000
    F225    F    0.42670   0.00415   0.85602   1.000
    F226    F    0.92669   0.00415   0.85602   1.000
    F227    F    0.39822   0.07982   0.98101   1.000
    F228    F    0.89821   0.07982   0.98101   1.000
    F229    F    0.12911   0.18682   0.48423   1.000
    F230    F    0.62911   0.18682   0.48423   1.000
    F231    F    0.05749   0.11969   0.35321   1.000
    F232    F    0.55748   0.11969   0.35321   1.000
    F233    F    0.41945   0.11108   0.48733   1.000
    F234    F    0.91944   0.11108   0.48733   1.000
    F235    F    0.48889   0.19117   0.61551   1.000
    F236    F    0.98889   0.19117   0.61551   1.000
    F237    F    0.44455   0.43147   0.60330   1.000
    F238    F    0.94454   0.43147   0.60330   1.000
    F239    F    0.41831   0.35614   0.45610   1.000
    F240    F    0.91830   0.35614   0.45616   1.000
    F241    F    0.32371   0.51061   0.64360   1.000
    F242    F    0.82370   0.51061   0.64360   1.000
    F243    F    0.35161   0.57797   0.51574   1.000
    F244    F    0.85160   0.57797   0.51574   1.000
    F245    F    0.37712   0.31552   0.98430   1.000
    F246    F    0.87711   0.31553   0.98430   1.000
    F247    F    0.30436   0.38240   0.85317   1.000
    F248    F    0.80435   0.38240   0.85317   1.000
    F249    F    0.16692   0.38661   0.98765   1.000
    F250    F    0.66691   0.38661   0.98765   1.000
    F251    F    0.23787   0.31102   0.11789   1.000
    F252    F    0.73786   0.31102   0.11789   1.000
    F253    F    0.19760   0.07113   0.10617   1.000
    F254    F    0.69760   0.07114   0.10617   1.000
    F255    F    0.16909   0.14612   0.95651   1.000
    F256    F    0.66909   0.14612   0.95651   1.000
    F257    F    0.07322   0.99585   0.14396   1.000
    F258    F    0.57322   0.99585   0.14396   1.000
    F259    F    0.10159   0.92015   0.01901   1.000
    F260    F    0.60159   0.92014   0.01901   1.000
    F261    F    0.58051   0.88889   0.51266   1.000
    F262    F    0.01109   0.80881   0.38448   1.000
    F263    F    0.51109   0.80880   0.38448   1.000
    F264    F    0.05544   0.56850   0.39670   1.000
    F265    F    0.55543   0.56850   0.39670   1.000
    F266    F    0.08167   0.64384   0.54384   1.000
    F267    F    0.58166   0.64384   0.54384   1.000
    F268    F    0.17622   0.48937   0.35600   1.000
    F269    F    0.67620   0.48937   0.35600   1.000
    F270    F    0.14835   0.42200   0.48425   1.000
    F271    F    0.64834   0.42200   0.48425   1.000
loop_
    _geom_bond_atom_site_label_1
    _geom_bond_atom_site_label_2
    _geom_bond_distance
    _geom_bond_site_symmetry_2
    _ccdc_geom_bond_type
    C115   F260      1.35062      .   S
    C115   C113      1.39288  1_565   S
    C115   C43       1.39990  1_554   S
    C114   F259      1.35065      .   S
    C114   C112      1.39286  1_565   S
    C114   C42       1.39988  1_554   S
    F217   C23       1.35015      .   S
    F218   C24       1.35015      .   S
    C24    C22       1.39540      .   S
    C24    C26       1.39157  1_554   S
    C23    C21       1.39539      .   S
    C23    C25       1.39156  1_554   S
    C17    F213      1.34552      .   S
    C17    C19       1.39305      .   S
    C17    C15       1.39891  1_554   S
    C18    F214      1.34554      .   S
    C18    C20       1.39306      .   S
    C18    C16       1.39890  1_554   S
    C38    F223      1.34901      .   S
    C38    C98       1.39735      .   S
    C38    C36       1.39613  1_554   S
    C39    F224      1.34900      .   S
    C39    C99       1.39736      .   S
    C39    C37       1.39613  1_554   S
    C91    C81       1.40234      .   S
    C91    F252      1.34302      .   S
    C91    C89       1.39155  1_554   S
    C90    C80       1.40233      .   S
    C90    F251      1.34305      .   S
    C90    C88       1.39157  1_554   S
    C104   C98       1.39631  1_545   S
    C104   F253      1.34339      .   S
    C104   C106      1.39679  1_554   S
    C105   C99       1.39629  1_545   S
    C105   F254      1.34335      .   S
    C105   C107      1.39679  1_554   S
    C81    C93       1.49949      .   S
    C81    C83       1.39892  1_554   S
    C80    C92       1.49951      .   S
    C80    C82       1.39894  1_554   S
    C110   C113      1.39878      .   S
    C110   C108      1.50761      .   S
    C110   C46       1.39922  1_554   S
    C111   C112      1.39925  1_655   S
    C111   C109      1.50652      .   S
    C111   C47       1.40016  1_554   S
    C112   F257      1.34569  1_545   S
    C113   F258      1.34569  1_545   S
    C98    C96       1.51185      .   S
    C99    C97       1.51185      .   S
    C19    C21       1.39310      .   S
    C19    F215      1.35081      .   S
    C20    C22       1.39308      .   S
    C20    F216      1.35078      .   S
    C21    C29       1.49752      .   S
    C22    C30       1.49752      .   S
    C93    O188      1.27065      .   S
    C93    O186      1.27059      .   S
    C92    O187      1.27062      .   S
    C92    O185      1.27061      .   S
    C109   O198      1.26885      .   S
    C109   O199      1.27329      .   S
    C108   O197      1.26882      .   S
    C108   O200      1.27319      .   S
    O197   Zn9       1.97599      .   S
    O198   Zn10      1.97596      .   S
    O188   Zn8       1.97444      .   S
    O187   Zn7       1.97442      .   S
    O186   Zn10      1.99454      .   S
    O185   Zn9       1.99451      .   S
    C29    O157      1.23287      .   S
    C29    O159      1.31829      .   S
    C30    O158      1.23287      .   S
    C30    O160      1.31829      .   S
    C97    O196      1.27445      .   S
    C97    O194      1.26709      .   S
    C96    O195      1.27446      .   S
    C96    O193      1.26709      .   S
    O199   Zn8       2.00049      .   S
    O200   Zn7       2.00028      .   S
    O195   Zn11      1.98587      .   S
    O196   Zn12      1.98586      .   S
    O160   Zn12      2.06010      .   S
    O159   Zn11      2.06015      .   S
    O193   Zn9       1.96193  1_565   S
    O194   Zn10      1.96196  1_565   S
    Zn7    O175      2.06687      .   S
    Zn7    O208      1.98880      .   S
    Zn8    O176      2.06685      .   S
    Zn8    O103      1.98892      .   S
    Zn11   O211      1.99163      .   S
    Zn11   O203      1.97028      .   S
    Zn12   O212      1.99166      .   S
    Zn12   O204      1.97045      .   S
    Zn13   O101      1.95984      .   S
    Zn13   O201      1.99309      .   S
    Zn13   O209      1.97782      .   S
    Zn14   O102      1.95981      .   S
    Zn14   O202      1.99309      .   S
    Zn14   O210      1.97784      .   S
    O101   C137      1.26795      .   S
    O102   C138      1.26781      .   S
    O175   C62       1.31861      .   S
    O176   C63       1.31860      .   S
    O103   C138      1.27433      .   S
    O208   C137      1.27416      .   S
    O211   C145      1.27267      .   S
    O212   C146      1.27318      .   S
    O173   C62       1.23451  1_565   S
    O174   C63       1.23451  1_565   S
    C138   C140      1.51067      .   S
    C137   C139      1.51069      .   S
    C63    C55       1.49835      .   S
    C62    C54       1.49833      .   S
    O203   C128      1.27007      .   S
    O204   C129      1.27016      .   S
    O201   C128      1.27055      .   S
    O202   C129      1.27100      .   S
    F232   C53       1.35070      .   S
    F231   C52       1.35072      .   S
    O209   C145      1.26767      .   S
    O210   C146      1.26812      .   S
    F269   C150      1.35179      .   S
    F268   C149      1.35176      .   S
    C145   C147      1.50630      .   S
    C146   C148      1.50520      .   S
    C128   C116      1.49747      .   S
    C129   C117      1.49682      .   S
    F262   C127      1.34269  1_455   S
    F263   C126      1.34248      .   S
    F264   C141      1.34411      .   S
    F265   C142      1.34408      .   S
    C54    C53       1.39352      .   S
    C54    C56       1.39644      .   S
    C55    C52       1.39379  1_655   S
    C55    C57       1.39642      .   S
    C52    C50       1.39284      .   S
    C53    C51       1.39284      .   S
    C139   C142      1.39793      .   S
    C139   C70       1.39962      .   S
    C140   C141      1.39812  1_655   S
    C140   C71       1.39961      .   S
    C149   C147      1.39662      .   S
    C149   C151      1.39320      .   S
    C150   C148      1.39665      .   S
    C150   C152      1.39319      .   S
    C148   C79       1.39967      .   S
    C147   C78       1.39968      .   S
    C116   C126      1.39979      .   S
    C116   C118      1.39761      .   S
    C117   C127      1.39976      .   S
    C117   C119      1.39776      .   S
    C141   C143      1.39594      .   S
    C142   C144      1.39595      .   S
    C126   C125      1.38972      .   S
    C127   C124      1.38985  1_655   S
    F239   C70       1.35100      .   S
    F240   C71       1.35093      .   S
    C70    C68       1.39578      .   S
    C71    C69       1.39578      .   S
    F230   C51       1.34361      .   S
    F229   C50       1.34361      .   S
    F271   C152      1.34827      .   S
    F270   C151      1.34825      .   S
    C57    F234      1.34805      .   S
    C57    C58       1.38982  1_655   S
    C56    F233      1.34806      .   S
    C56    C59       1.38970      .   S
    C51    C49       1.39773      .   S
    C50    C48       1.39770      .   S
    C152   C75       1.39953      .   S
    C151   C74       1.39954      .   S
    C78    F243      1.34827      .   S
    C78    C76       1.39258      .   S
    C79    F244      1.34828      .   S
    C79    C77       1.39306      .   S
    F136   C124      1.34806      .   S
    F261   C125      1.34807      .   S
    C118   F132      1.34355      .   S
    C118   C120      1.39284      .   S
    C119   F133      1.34325      .   S
    C119   C121      1.39271      .   S
    C124   C122      1.39632      .   S
    C125   C123      1.39633      .   S
    C144   F267      1.35088      .   S
    C144   C67       1.39905      .   S
    C143   F266      1.35088      .   S
    C143   C66       1.39961      .   S
    C59    C49       1.39975      .   S
    C59    F235      1.34233      .   S
    C58    C48       1.39972      .   S
    C58    F236      1.34254  1_455   S
    C69    C66       1.39810  1_655   S
    C69    F238      1.34403      .   S
    C68    C67       1.39786      .   S
    C68    F237      1.34400      .   S
    C49    C61       1.49672      .   S
    C48    C60       1.49674      .   S
    C75    C77       1.39658      .   S
    C75    C73       1.50506      .   S
    C74    C76       1.39667      .   S
    C74    C72       1.50507      .   S
    C76    F241      1.34705      .   S
    C77    F242      1.34660      .   S
    C67    C65       1.51138      .   S
    C66    C64       1.51075      .   S
    C120   C123      1.39342      .   S
    C120   F134      1.35069      .   S
    C121   C122      1.39372  1_655   S
    C121   F135      1.35069      .   S
    C123   C131      1.49825      .   S
    C122   C130      1.49765      .   S
    C60    O169      1.27053      .   S
    C60    O171      1.27011      .   S
    C61    O170      1.27101      .   S
    C61    O172      1.26994      .   S
    C72    O181      1.26812      .   S
    C72    O183      1.27332      .   S
    C73    O182      1.26812      .   S
    C73    O184      1.27329      .   S
    O182   Zn6       1.97789      .   S
    O181   Zn5       1.97790      .   S
    O169   Zn5       1.99376      .   S
    O170   Zn6       1.99334      .   S
    O172   Zn4       1.97121      .   S
    O171   Zn3       1.97040      .   S
    C130   O205      1.23452  1_565   S
    C130   O207      1.31915      .   S
    C131   O206      1.23436  1_565   S
    C131   O100      1.31870      .   S
    C65    O179      1.27408      .   S
    C65    O178      1.26778      .   S
    C64    O180      1.30094      .   S
    C64    O177      1.26779      .   S
    O183   Zn3       1.99091      .   S
    O184   Zn4       1.99088      .   S
    O180   Zn32      2.00681      .   S
    O179   Zn0       1.98898      .   S
    O207   Zn32      2.06676      .   S
    O100   Zn0       2.06678      .   S
    O177   Zn5       1.95971      .   S
    O178   Zn6       1.95971      .   S
    Zn3    O191      2.06079      .   S
    Zn3    O163      1.98549      .   S
    Zn4    O192      2.06083      .   S
    Zn4    O164      1.98548      .   S
    Zn32   O168      2.14459      .   S
    Zn32   O155      1.97457      .   S
    Zn0    O167      1.99945      .   S
    Zn0    O156      1.97456      .   S
    Zn2    O162      1.96113  1_565   S
    Zn2    O154      1.99420      .   S
    Zn2    O166      1.97656      .   S
    Zn1    O161      1.96118  1_565   S
    Zn1    O153      1.99420      .   S
    Zn1    O165      1.97653      .   S
    O161   C31       1.26704      .   S
    O162   C33       1.26705      .   S
    O191   C94       1.31843      .   S
    O192   C95       1.31844      .   S
    O163   C31       1.27449      .   S
    O164   C33       1.27450      .   S
    O167   C41       1.27379      .   S
    O190   C95       1.23427      .   S
    O189   C94       1.23426      .   S
    O168   C40       1.37421      .   S
    C33    C35       1.51100      .   S
    C31    C34       1.51100      .   S
    C95    C87       1.49748      .   S
    C94    C86       1.49749      .   S
    O153   C27       1.27067      .   S
    O154   C28       1.27067      .   S
    O156   C28       1.27060      .   S
    O155   C27       1.27060      .   S
    F248   C85       1.35081      .   S
    F247   C84       1.35078      .   S
    O166   C41       1.26876      .   S
    O165   C40       1.26877      .   S
    F226   C45       1.34549  1_545   S
    F225   C44       1.34547  1_545   S
    C40    C42       1.50658      .   S
    C41    C43       1.50656      .   S
    C27    C15       1.49960      .   S
    C28    C16       1.49958      .   S
    F220   C26       1.34308      .   S
    F219   C25       1.34305      .   S
    F221   C36       1.34514      .   S
    F222   C37       1.34503      .   S
    C87    C85       1.39313      .   S
    C87    C89       1.39550      .   S
    C86    C84       1.39310      .   S
    C86    C88       1.39550      .   S
    C84    C82       1.39309      .   S
    C85    C83       1.39309      .   S
    C35    C37       1.39743  1_545   S
    C35    C107      1.39924      .   S
    C34    C36       1.39742  1_545   S
    C34    C106      1.39926      .   S
    C45    C42       1.39807  1_655   S
    C45    C47       1.39395  1_565   S
    C44    C43       1.39782      .   S
    C44    C46       1.39393  1_565   S
    C16    C26       1.40242      .   S
    C15    C25       1.40240      .   S
    F255   C106      1.35138      .   S
    F256   C107      1.35138      .   S
    F228   C47       1.35076      .   S
    F227   C46       1.35077      .   S
    F245   C82       1.34543      .   S
    F246   C83       1.34540      .   S
    C88    F249      1.35007      .   S
    C89    F250      1.35005      .   S
    O159   Zn13      2.09105      .   S
    O160   Zn14      2.09106      .   S
    O175   Zn9       2.08018      .   S
    O176   Zn10      2.08019      .   S
    O191   Zn5       2.09016      .   S
    O192   Zn6       2.09015      .   S
    O207   Zn1       2.07953      .   S
    O100   Zn2       2.07953      .   S
