# CIF file generated by openbabel 2.4.90, see http://openbabel.sf.net
data_I
_chemical_name_common ''
_cell_length_a 25.575
_cell_length_b 12.77
_cell_length_c 17.715
_cell_angle_alpha 89.717
_cell_angle_beta 105.363
_cell_angle_gamma 90.194
_space_group_name_H-M_alt 'P 1'
_space_group_name_Hall 'P 1'
loop_
    _symmetry_equiv_pos_as_xyz
    x,y,z
loop_
    _atom_site_label
    _atom_site_type_symbol
    _atom_site_fract_x
    _atom_site_fract_y
    _atom_site_fract_z
    _atom_site_occupancy
    C0      C    0.15169   0.73969   0.87609   1.000
    C1      C    0.65168   0.73969   0.87609   1.000
    C2      C    0.30631   0.58026   0.15473   1.000
    C3      C    0.80630   0.58026   0.15473   1.000
    C4      C    0.21863   0.08480   0.84042   1.000
    C5      C    0.71862   0.08480   0.84042   1.000
    C6      C    0.03381   0.91866   0.86644   1.000
    C7      C    0.53380   0.91866   0.86644   1.000
    C8      C    0.09909   0.24276   0.62260   1.000
    C9      C    0.59908   0.24276   0.62260   1.000
    C10     C    0.44599   0.07972   0.34456   1.000
    C11     C    0.94598   0.07973   0.34456   1.000
    C12     C    0.02990   0.58477   0.65914   1.000
    C13     C    0.52989   0.58478   0.65914   1.000
    C14     C    0.21624   0.42489   0.63591   1.000
    C15     C    0.71622   0.42489   0.63591   1.000
    C16     C    0.34823   0.26028   0.12394   1.000
    C17     C    0.84821   0.26028   0.12394   1.000
    C18     C    0.19364   0.41972   0.84526   1.000
    C19     C    0.69363   0.41972   0.84526   1.000
    C20     C    0.28085   0.91555   0.15952   1.000
    C21     C    0.78084   0.91555   0.15952   1.000
    C22     C    0.46596   0.08115   0.13359   1.000
    C23     C    0.96595   0.08115   0.13359   1.000
    C24     C    0.40087   0.75726   0.37730   1.000
    C25     C    0.90086   0.75726   0.37736   1.000
    C26     C    0.05395   0.92022   0.65540   1.000
    C27     C    0.55395   0.92022   0.65545   1.000
    C28     C    0.47007   0.41520   0.34088   1.000
    C29     C    0.97006   0.41520   0.34088   1.000
    C30     C    0.28373   0.57511   0.36400   1.000
    C31     C    0.78372   0.57511   0.36407   1.000
