# CIF file generated by openbabel 2.4.90, see http://openbabel.sf.net
data_I
_chemical_name_common ''
_cell_length_a 25.575
_cell_length_b 12.77
_cell_length_c 17.715
_cell_angle_alpha 89.717
_cell_angle_beta 105.363
_cell_angle_gamma 90.194
_space_group_name_H-M_alt 'P 1'
_space_group_name_Hall 'P 1'
loop_
    _symmetry_equiv_pos_as_xyz
    x,y,z
loop_
    _atom_site_label
    _atom_site_type_symbol
    _atom_site_fract_x
    _atom_site_fract_y
    _atom_site_fract_z
    _atom_site_occupancy
    C0      C    0.04257   0.74315   0.76641   1.000
    C1      C    0.54256   0.74315   0.76641   1.000
    C2      C    0.12449   0.93777   0.79073   1.000
    C3      C    0.62448   0.93777   0.79073   1.000
    C4      C    0.20661   0.24796   0.73477   1.000
    C5      C    0.70660   0.24796   0.73477   1.000
    C6      C    0.12467   0.43999   0.70925   1.000
    C7      C    0.62466   0.43999   0.70925   1.000
    C8      C    0.45733   0.25680   0.23365   1.000
    C9      C    0.95732   0.25680   0.23365   1.000
    C10     C    0.37537   0.06221   0.20936   1.000
    C11     C    0.87536   0.06221   0.20936   1.000
    C12     C    0.29335   0.75213   0.26517   1.000
    C13     C    0.79334   0.75213   0.26517   1.000
    C14     C    0.37529   0.55998   0.29073   1.000
    C15     C    0.87528   0.55998   0.29073   1.000
    C16     C    0.19044   0.68947   0.94529   1.000
    C17     C    0.69042   0.68947   0.94529   1.000
    C18     C    0.17420   0.66726   0.01312   1.000
    C19     C    0.67419   0.66726   0.01312   1.000
    C20     C    0.21151   0.63149   0.08058   1.000
    C21     C    0.71150   0.63149   0.08058   1.000
    C22     C    0.26531   0.61320   0.08132   1.000
    C23     C    0.76530   0.61319   0.08132   1.000
    C24     C    0.28117   0.63164   0.01288   1.000
    C25     C    0.78116   0.63164   0.01288   1.000
    C26     C    0.24459   0.67082   0.94609   1.000
    C27     C    0.74458   0.67082   0.94609   1.000
    C28     C    0.15169   0.73969   0.87609   1.000
    C29     C    0.65168   0.73969   0.87609   1.000
    C30     C    0.30631   0.58026   0.15473   1.000
    C31     C    0.80630   0.58026   0.15473   1.000
    C32     C    0.21863   0.08480   0.84042   1.000
    C33     C    0.71862   0.08480   0.84042   1.000
    C34     C    0.23543   0.04034   0.92249   1.000
    C35     C    0.73542   0.04034   0.92249   1.000
    C36     C    0.27629   0.96537   0.94573   1.000
    C37     C    0.77628   0.96537   0.94573   1.000
    C38     C    0.29005   0.92617   0.02215   1.000
    C39     C    0.79004   0.92617   0.02215   1.000
    C40     C    0.03381   0.91866   0.86644   1.000
    C41     C    0.53380   0.91866   0.86644   1.000
    C42     C    0.01470   0.95880   0.93439   1.000
    C43     C    0.51470   0.95879   0.93439   1.000
    C44     C    0.46290   0.99970   0.92661   1.000
    C45     C    0.96290   0.99970   0.92661   1.000
    C46     C    0.44844   0.03974   0.99130   1.000
    C47     C    0.94844   0.03974   0.99130   1.000
    C48     C    0.06103   0.19196   0.55346   1.000
    C49     C    0.56102   0.19196   0.55346   1.000
    C50     C    0.07767   0.16932   0.48628   1.000
    C51     C    0.57767   0.16932   0.48628   1.000
    C52     C    0.04083   0.13281   0.41880   1.000
    C53     C    0.54082   0.13281   0.41880   1.000
    C54     C    0.48700   0.11315   0.41774   1.000
    C55     C    0.98700   0.11315   0.41774   1.000
    C56     C    0.47095   0.13138   0.48597   1.000
    C57     C    0.97095   0.13139   0.48597   1.000
    C58     C    0.00694   0.17239   0.55229   1.000
    C59     C    0.50693   0.17239   0.55229   1.000
    C60     C    0.09909   0.24276   0.62260   1.000
    C61     C    0.59908   0.24276   0.62260   1.000
    C62     C    0.44599   0.07972   0.34456   1.000
    C63     C    0.94598   0.07973   0.34456   1.000
    C64     C    0.02990   0.58477   0.65914   1.000
    C65     C    0.52989   0.58478   0.65914   1.000
    C66     C    0.01340   0.54066   0.57724   1.000
    C67     C    0.51339   0.54067   0.57720   1.000
    C68     C    0.47184   0.46697   0.55310   1.000
    C69     C    0.97183   0.46697   0.55310   1.000
    C70     C    0.45866   0.42742   0.47706   1.000
    C71     C    0.95865   0.42742   0.47706   1.000
    C72     C    0.21624   0.42489   0.63591   1.000
    C73     C    0.71622   0.42489   0.63591   1.000
    C74     C    0.23527   0.46313   0.56716   1.000
    C75     C    0.73525   0.46313   0.56716   1.000
    C76     C    0.28717   0.50294   0.57340   1.000
    C77     C    0.78715   0.50294   0.57343   1.000
    C78     C    0.30137   0.53870   0.50711   1.000
    C79     C    0.80136   0.53870   0.50711   1.000
    C80     C    0.30950   0.31045   0.05470   1.000
    C81     C    0.80949   0.31045   0.05470   1.000
    C82     C    0.32574   0.33267   0.98687   1.000
    C83     C    0.82573   0.33267   0.98687   1.000
    C84     C    0.28844   0.36844   0.91940   1.000
    C85     C    0.78843   0.36844   0.91940   1.000
    C86     C    0.23463   0.38670   0.91865   1.000
    C87     C    0.73462   0.38670   0.91865   1.000
    C88     C    0.21877   0.36823   0.98709   1.000
    C89     C    0.71876   0.36823   0.98709   1.000
    C90     C    0.25535   0.32908   0.05389   1.000
    C91     C    0.75534   0.32908   0.05389   1.000
    C92     C    0.34823   0.26028   0.12394   1.000
    C93     C    0.84821   0.26028   0.12394   1.000
    C94     C    0.19364   0.41972   0.84526   1.000
    C95     C    0.69363   0.41972   0.84526   1.000
    C96     C    0.28085   0.91555   0.15952   1.000
    C97     C    0.78084   0.91555   0.15952   1.000
    C98     C    0.26378   0.96007   0.07743   1.000
    C99     C    0.76377   0.96006   0.07743   1.000
    C100    C    0.22299   0.03505   0.05420   1.000
    C101    C    0.72298   0.03504   0.05420   1.000
    C102    C    0.20891   0.07400   0.97767   1.000
    C103    C    0.70890   0.07400   0.97767   1.000
    C104    C    0.46596   0.08115   0.13359   1.000
    C105    C    0.96595   0.08115   0.13359   1.000
    C106    C    0.48510   0.04102   0.06560   1.000
    C107    C    0.98509   0.04102   0.06567   1.000
    C108    C    0.03692   0.00000   0.07343   1.000
    C109    C    0.53691   0.00000   0.07343   1.000
    C110    C    0.05135   0.96012   0.00874   1.000
    C111    C    0.55135   0.96012   0.00874   1.000
    C112    C    0.43894   0.80801   0.44652   1.000
    C113    C    0.93893   0.80801   0.44652   1.000
    C114    C    0.42230   0.83063   0.51370   1.000
    C115    C    0.92229   0.83063   0.51371   1.000
    C116    C    0.45915   0.86711   0.58119   1.000
    C117    C    0.95914   0.86711   0.58119   1.000
    C118    C    0.01297   0.88674   0.58226   1.000
    C119    C    0.51296   0.88674   0.58226   1.000
    C120    C    0.02902   0.86855   0.51403   1.000
    C121    C    0.52902   0.86855   0.51403   1.000
    C122    C    0.49303   0.82757   0.44770   1.000
    C123    C    0.99302   0.82757   0.44770   1.000
    C124    C    0.40087   0.75726   0.37730   1.000
    C125    C    0.90086   0.75726   0.37736   1.000
    C126    C    0.05395   0.92022   0.65540   1.000
    C127    C    0.55395   0.92022   0.65545   1.000
    C128    C    0.47007   0.41520   0.34088   1.000
    C129    C    0.97006   0.41520   0.34088   1.000
    C130    C    0.48658   0.45932   0.42277   1.000
    C131    C    0.98657   0.45932   0.42277   1.000
    C132    C    0.02814   0.53302   0.44690   1.000
    C133    C    0.52813   0.53302   0.44690   1.000
    C134    C    0.04132   0.57257   0.52295   1.000
    C135    C    0.54131   0.57257   0.52295   1.000
    C136    C    0.28373   0.57511   0.36400   1.000
    C137    C    0.78372   0.57511   0.36407   1.000
    C138    C    0.26469   0.53685   0.43281   1.000
    C139    C    0.76467   0.53685   0.43281   1.000
    C140    C    0.21279   0.49704   0.42654   1.000
    C141    C    0.71277   0.49704   0.42654   1.000
    C142    C    0.19858   0.46128   0.49287   1.000
    C143    C    0.69857   0.46128   0.49287   1.000
    C144    C    0.16936   0.82189   0.85038   1.000
    C145    C    0.66935   0.82189   0.85038   1.000
    C146    C    0.10513   0.69789   0.85184   1.000
    C147    C    0.60512   0.69789   0.85184   1.000
    C148    C    0.31856   0.48802   0.17100   1.000
    C149    C    0.81855   0.48802   0.17100   1.000
    C150    C    0.33019   0.65638   0.20141   1.000
    C151    C    0.83018   0.65638   0.20141   1.000
    C152    C    0.17714   0.04980   0.79078   1.000
    C153    C    0.67712   0.04980   0.79078   1.000
    C154    C    0.24641   0.16093   0.82474   1.000
    C155    C    0.74640   0.16093   0.82474   1.000
    C156    C    0.07439   0.96804   0.85574   1.000
    C157    C    0.57438   0.96805   0.85574   1.000
    C158    C    0.50923   0.84045   0.82850   1.000
    C159    C    0.00000   0.84045   0.82856   1.000
    C160    C    0.08102   0.32497   0.64690   1.000
    C161    C    0.58101   0.32497   0.64696   1.000
    C162    C    0.14544   0.20103   0.64838   1.000
    C163    C    0.64543   0.20103   0.64830   1.000
    C164    C    0.43338   0.98750   0.32850   1.000
    C165    C    0.93337   0.98750   0.32850   1.000
    C166    C    0.42212   0.15597   0.29764   1.000
    C167    C    0.92212   0.15597   0.29764   1.000
    C168    C    0.07192   0.55118   0.70860   1.000
    C169    C    0.57191   0.55118   0.70860   1.000
    C170    C    0.50176   0.65938   0.67529   1.000
    C171    C    0.00000   0.65937   0.67500   1.000
    C172    C    0.17593   0.47456   0.64652   1.000
    C173    C    0.67592   0.47456   0.64652   1.000
    C174    C    0.24061   0.34677   0.67441   1.000
    C175    C    0.74060   0.34677   0.67441   1.000
    C176    C    0.33053   0.17813   0.14967   1.000
    C177    C    0.83052   0.17813   0.14967   1.000
    C178    C    0.39478   0.30209   0.14822   1.000
    C179    C    0.89477   0.30209   0.14822   1.000
    C180    C    0.18146   0.51198   0.82851   1.000
    C181    C    0.68144   0.51198   0.82851   1.000
    C182    C    0.16972   0.34365   0.79856   1.000
    C183    C    0.66970   0.34365   0.79856   1.000
    C184    C    0.32237   0.95067   0.20905   1.000
    C185    C    0.82236   0.95067   0.20905   1.000
    C186    C    0.25332   0.83908   0.17527   1.000
    C187    C    0.75331   0.83907   0.17527   1.000
    C188    C    0.42532   0.03185   0.14418   1.000
    C189    C    0.92531   0.03185   0.14418   1.000
    C190    C    0.99056   0.15930   0.17150   1.000
    C191    C    0.49055   0.15930   0.17150   1.000
    C192    C    0.41891   0.67500   0.35302   1.000
    C193    C    0.91890   0.67500   0.35302   1.000
    C194    C    0.35454   0.79909   0.35150   1.000
    C195    C    0.85453   0.79909   0.35152   1.000
    C196    C    0.06656   0.01245   0.67143   1.000
    C197    C    0.56655   0.01245   0.67143   1.000
    C198    C    0.07778   0.84402   0.70246   1.000
    C199    C    0.57777   0.84402   0.70246   1.000
    C200    C    0.42805   0.44879   0.29140   1.000
    C201    C    0.92804   0.44879   0.29142   1.000
    C202    C    0.99818   0.34057   0.32473   1.000
    C203    C    0.49818   0.34056   0.32473   1.000
    C204    C    0.32402   0.52541   0.35346   1.000
    C205    C    0.82401   0.52541   0.35346   1.000
    C206    C    0.25939   0.65327   0.32561   1.000
    C207    C    0.75938   0.65327   0.32561   1.000
    C208    C    0.12283   0.68444   0.01570   1.000
    C209    C    0.62282   0.68444   0.01570   1.000
    C210    C    0.19562   0.61757   0.14684   1.000
    C211    C    0.69561   0.61757   0.14684   1.000
    C212    C    0.33304   0.61337   0.01234   1.000
    C213    C    0.83303   0.61337   0.01234   1.000
    C214    C    0.26210   0.68897   0.88213   1.000
    C215    C    0.76209   0.68897   0.88213   1.000
    C216    C    0.30209   0.92915   0.89417   1.000
    C217    C    0.80209   0.92915   0.89418   1.000
    C218    C    0.32939   0.85338   0.04333   1.000
    C219    C    0.82938   0.85338   0.04333   1.000
    C220    C    0.42670   0.00415   0.85602   1.000
    C221    C    0.92669   0.00415   0.85602   1.000
    C222    C    0.39822   0.07982   0.98101   1.000
    C223    C    0.89821   0.07982   0.98101   1.000
    C224    C    0.12911   0.18682   0.48423   1.000
    C225    C    0.62911   0.18682   0.48423   1.000
    C226    C    0.05749   0.11969   0.35321   1.000
    C227    C    0.55748   0.11969   0.35321   1.000
    C228    C    0.41945   0.11108   0.48733   1.000
    C229    C    0.91944   0.11108   0.48733   1.000
    C230    C    0.48889   0.19117   0.61551   1.000
    C231    C    0.98889   0.19117   0.61551   1.000
    C232    C    0.44455   0.43147   0.60330   1.000
    C233    C    0.94454   0.43147   0.60330   1.000
    C234    C    0.41831   0.35614   0.45610   1.000
    C235    C    0.91830   0.35614   0.45616   1.000
    C236    C    0.32371   0.51061   0.64360   1.000
    C237    C    0.82370   0.51061   0.64360   1.000
    C238    C    0.35161   0.57797   0.51574   1.000
    C239    C    0.85160   0.57797   0.51574   1.000
    C240    C    0.37712   0.31552   0.98430   1.000
    C241    C    0.87711   0.31553   0.98430   1.000
    C242    C    0.30436   0.38240   0.85317   1.000
    C243    C    0.80435   0.38240   0.85317   1.000
    C244    C    0.16692   0.38661   0.98765   1.000
    C245    C    0.66691   0.38661   0.98765   1.000
    C246    C    0.23787   0.31102   0.11789   1.000
    C247    C    0.73786   0.31102   0.11789   1.000
    C248    C    0.19760   0.07113   0.10617   1.000
    C249    C    0.69760   0.07114   0.10617   1.000
    C250    C    0.16909   0.14612   0.95651   1.000
    C251    C    0.66909   0.14612   0.95651   1.000
    C252    C    0.07322   0.99585   0.14396   1.000
    C253    C    0.57322   0.99585   0.14396   1.000
    C254    C    0.10159   0.92015   0.01901   1.000
    C255    C    0.60159   0.92014   0.01901   1.000
    C256    C    0.37086   0.81315   0.51575   1.000
    C257    C    0.87085   0.81315   0.51570   1.000
    C258    C    0.44249   0.88027   0.64678   1.000
    C259    C    0.94249   0.88027   0.64678   1.000
    C260    C    0.08052   0.88889   0.51266   1.000
    C261    C    0.58051   0.88889   0.51266   1.000
    C262    C    0.01109   0.80881   0.38448   1.000
    C263    C    0.51109   0.80880   0.38448   1.000
    C264    C    0.05544   0.56850   0.39670   1.000
    C265    C    0.55543   0.56850   0.39670   1.000
    C266    C    0.08167   0.64384   0.54384   1.000
    C267    C    0.58166   0.64384   0.54384   1.000
    C268    C    0.17622   0.48937   0.35600   1.000
    C269    C    0.67620   0.48937   0.35600   1.000
    C270    C    0.14835   0.42200   0.48425   1.000
    C271    C    0.64834   0.42200   0.48425   1.000
    O272    O    0.57647   0.94013   0.01388   1.000
    O273    O    0.54413   0.98006   0.04108   1.000
    O274    O    0.53302   0.95946   0.97157   1.000
    O275    O    0.07647   0.94013   0.01388   1.000
    O276    O    0.04414   0.98006   0.04108   1.000
    O277    O    0.03303   0.95946   0.97157   1.000
    O278    O    0.30711   0.62250   0.01261   1.000
    O279    O    0.80709   0.62250   0.01261   1.000
    O280    O    0.77323   0.62242   0.04710   1.000
    O281    O    0.76287   0.65123   0.97949   1.000
    O282    O    0.27324   0.62242   0.04710   1.000
    O283    O    0.26288   0.65123   0.97949   1.000
    O284    O    0.14851   0.67585   0.01441   1.000
    O285    O    0.19285   0.64937   0.04685   1.000
    O286    O    0.18232   0.67837   0.97921   1.000
    O287    O    0.64850   0.67585   0.01441   1.000
    O288    O    0.69284   0.64937   0.04685   1.000
    O289    O    0.68231   0.67837   0.97921   1.000
    O290    O    0.30972   0.88977   0.03274   1.000
    O291    O    0.27692   0.94312   0.04979   1.000
    O292    O    0.28317   0.94577   0.98394   1.000
    O293    O    0.80971   0.88977   0.03274   1.000
    O294    O    0.77691   0.94312   0.04979   1.000
    O295    O    0.78316   0.94577   0.98394   1.000
    O296    O    0.78242   0.31977   0.05430   1.000
    O297    O    0.74660   0.32005   0.08589   1.000
    O298    O    0.73705   0.34866   0.02049   1.000
    O299    O    0.28243   0.31977   0.05430   1.000
    O300    O    0.24661   0.32005   0.08589   1.000
    O301    O    0.23706   0.34866   0.02049   1.000
    O302    O    0.24339   0.99756   0.06581   1.000
    O303    O    0.21030   0.05309   0.08019   1.000
    O304    O    0.21595   0.05452   0.01594   1.000
    O305    O    0.74338   0.99755   0.06581   1.000
    O306    O    0.71029   0.05309   0.08019   1.000
    O307    O    0.71594   0.05452   0.01594   1.000
    O308    O    0.82885   0.28537   0.08932   1.000
    O309    O    0.81761   0.32156   0.02079   1.000
    O310    O    0.32887   0.28537   0.08932   1.000
    O311    O    0.31762   0.32156   0.02079   1.000
    O312    O    0.51101   0.02051   0.06952   1.000
    O313    O    0.47553   0.06109   0.09960   1.000
    O314    O    0.46677   0.04038   0.02845   1.000
    O315    O    0.01101   0.02051   0.06955   1.000
    O316    O    0.97552   0.06109   0.09963   1.000
    O317    O    0.96676   0.04038   0.02849   1.000
    O318    O    0.05507   0.99793   0.10870   1.000
    O319    O    0.55507   0.99793   0.10870   1.000
    O320    O    0.27232   0.93781   0.11848   1.000
    O321    O    0.77231   0.93781   0.11848   1.000
    O322    O    0.23841   0.62234   0.08095   1.000
    O323    O    0.20356   0.62453   0.11371   1.000
    O324    O    0.73840   0.62234   0.08095   1.000
    O325    O    0.70355   0.62453   0.11371   1.000
    O326    O    0.28581   0.59673   0.11803   1.000
    O327    O    0.78580   0.59673   0.11803   1.000
    O328    O    0.87149   0.28119   0.13608   1.000
    O329    O    0.83937   0.21921   0.13680   1.000
    O330    O    0.37150   0.28119   0.13608   1.000
    O331    O    0.33938   0.21921   0.13680   1.000
    O332    O    0.94563   0.05650   0.13888   1.000
    O333    O    0.97826   0.12023   0.15255   1.000
    O334    O    0.44564   0.05650   0.13888   1.000
    O335    O    0.47826   0.12023   0.15255   1.000
    O336    O    0.40034   0.04703   0.17677   1.000
    O337    O    0.90034   0.04703   0.17677   1.000
    O338    O    0.92605   0.27945   0.19094   1.000
    O339    O    0.42606   0.27945   0.19094   1.000
    O340    O    0.85294   0.12017   0.17951   1.000
    O341    O    0.35295   0.12017   0.17951   1.000
    O342    O    0.31243   0.53414   0.16287   1.000
    O343    O    0.31825   0.61832   0.17807   1.000
    O344    O    0.81242   0.53414   0.16287   1.000
    O345    O    0.81824   0.61832   0.17807   1.000
    O346    O    0.76708   0.87731   0.16740   1.000
    O347    O    0.80160   0.93311   0.18429   1.000
    O348    O    0.26708   0.87731   0.16740   1.000
    O349    O    0.30161   0.93311   0.18429   1.000
    O350    O    0.97394   0.20805   0.20258   1.000
    O351    O    0.47394   0.20805   0.20258   1.000
    O352    O    0.27333   0.79560   0.22022   1.000
    O353    O    0.77333   0.79560   0.22022   1.000
    O354    O    0.81176   0.70425   0.23329   1.000
    O355    O    0.31177   0.70425   0.23329   1.000
    O356    O    0.34887   0.00644   0.20921   1.000
    O357    O    0.84886   0.00644   0.20921   1.000
    O358    O    0.43973   0.20639   0.26565   1.000
    O359    O    0.47775   0.29868   0.27919   1.000
    O360    O    0.93972   0.20639   0.26565   1.000
    O361    O    0.97775   0.29869   0.27919   1.000
    O362    O    0.27637   0.70270   0.29539   1.000
    O363    O    0.32394   0.77561   0.30834   1.000
    O364    O    0.77636   0.70270   0.29539   1.000
    O365    O    0.82394   0.77561   0.30834   1.000
    O366    O    0.40167   0.50439   0.29107   1.000
    O367    O    0.39710   0.61749   0.32188   1.000
    O368    O    0.34965   0.54269   0.32210   1.000
    O369    O    0.90165   0.50438   0.29108   1.000
    O370    O    0.89709   0.61749   0.32188   1.000
    O371    O    0.84964   0.54269   0.32210   1.000
    O372    O    0.44906   0.43200   0.31614   1.000
    O373    O    0.94905   0.43200   0.31615   1.000
    O374    O    0.43406   0.11785   0.32110   1.000
    O375    O    0.93405   0.11785   0.32110   1.000
    O376    O    0.98412   0.37788   0.33281   1.000
    O377    O    0.48413   0.37788   0.33281   1.000
    O378    O    0.27156   0.61419   0.34481   1.000
    O379    O    0.77155   0.61419   0.34484   1.000
    O380    O    0.43969   0.03361   0.33653   1.000
    O381    O    0.93968   0.03361   0.33653   1.000
    O382    O    0.97832   0.43726   0.38182   1.000
    O383    O    0.47832   0.43726   0.38182   1.000
    O384    O    0.96649   0.09644   0.38115   1.000
    O385    O    0.46650   0.09644   0.38115   1.000
    O386    O    0.37770   0.77818   0.36440   1.000
    O387    O    0.87769   0.77818   0.36444   1.000
    O388    O    0.40989   0.71613   0.36516   1.000
    O389    O    0.90988   0.71613   0.36519   1.000
    O390    O    0.54915   0.12625   0.38601   1.000
    O391    O    0.04916   0.12625   0.38601   1.000
    O392    O    0.30388   0.55026   0.35873   1.000
    O393    O    0.80387   0.55026   0.35877   1.000
    O394    O    0.69449   0.49320   0.39127   1.000
    O395    O    0.19450   0.49320   0.39127   1.000
    O396    O    0.27421   0.55598   0.39840   1.000
    O397    O    0.77420   0.55598   0.39844   1.000
    O398    O    0.41990   0.78264   0.41191   1.000
    O399    O    0.91989   0.78264   0.41194   1.000
    O400    O    0.00206   0.81819   0.41609   1.000
    O401    O    0.50206   0.81819   0.41609   1.000
    O402    O    0.04179   0.55076   0.42180   1.000
    O403    O    0.54178   0.55076   0.42180   1.000
    O404    O    0.51391   0.12298   0.41827   1.000
    O405    O    0.47898   0.12227   0.45186   1.000
    O406    O    0.01391   0.12298   0.41827   1.000
    O407    O    0.97897   0.12227   0.45186   1.000
    O408    O    0.05925   0.15106   0.45254   1.000
    O409    O    0.55924   0.15106   0.45254   1.000
    O410    O    0.50736   0.49617   0.43484   1.000
    O411    O    0.47262   0.44337   0.44992   1.000
    O412    O    0.00735   0.49617   0.43484   1.000
    O413    O    0.97261   0.44337   0.44992   1.000
    O414    O    0.23874   0.51695   0.42968   1.000
    O415    O    0.20568   0.47916   0.45970   1.000
    O416    O    0.73872   0.51695   0.42968   1.000
    O417    O    0.70567   0.47916   0.45970   1.000
    O418    O    0.78302   0.53778   0.46996   1.000
    O419    O    0.28303   0.53778   0.46996   1.000
    O420    O    0.46598   0.81779   0.44711   1.000
    O421    O    0.43062   0.81932   0.48011   1.000
    O422    O    0.96598   0.81779   0.44711   1.000
    O423    O    0.93061   0.81932   0.48012   1.000
    O424    O    0.03473   0.55279   0.48493   1.000
    O425    O    0.53472   0.55280   0.48493   1.000
    O426    O    0.51102   0.84806   0.48087   1.000
    O427    O    0.01102   0.84806   0.48087   1.000
    O428    O    0.43848   0.39178   0.46658   1.000
    O429    O    0.93848   0.39178   0.46661   1.000
    O430    O    0.46525   0.44719   0.51508   1.000
    O431    O    0.96524   0.44719   0.51508   1.000
    O432    O    0.60339   0.17807   0.48526   1.000
    O433    O    0.10339   0.17807   0.48526   1.000
    O434    O    0.67345   0.44164   0.48856   1.000
    O435    O    0.17347   0.44164   0.48856   1.000
    O436    O    0.94519   0.12123   0.48665   1.000
    O437    O    0.98894   0.15189   0.51913   1.000
    O438    O    0.44520   0.12123   0.48665   1.000
    O439    O    0.48894   0.15189   0.51913   1.000
    O440    O    0.56935   0.18064   0.51987   1.000
    O441    O    0.06935   0.18064   0.51987   1.000
    O442    O    0.71691   0.46220   0.53002   1.000
    O443    O    0.21692   0.46220   0.53002   1.000
    O444    O    0.32649   0.55834   0.51142   1.000
    O445    O    0.29427   0.52082   0.54026   1.000
    O446    O    0.82648   0.55834   0.51142   1.000
    O447    O    0.79426   0.52082   0.54027   1.000
    O448    O    0.05477   0.87872   0.51335   1.000
    O449    O    0.55476   0.87872   0.51335   1.000
    O450    O    0.39658   0.82189   0.51473   1.000
    O451    O    0.44072   0.84887   0.54745   1.000
    O452    O    0.89657   0.82189   0.51470   1.000
    O453    O    0.94072   0.84887   0.54745   1.000
    O454    O    0.02100   0.87765   0.54815   1.000
    O455    O    0.52099   0.87765   0.54815   1.000
    O456    O    0.56149   0.60821   0.53340   1.000
    O457    O    0.52735   0.55662   0.55008   1.000
    O458    O    0.06149   0.60820   0.53340   1.000
    O459    O    0.02736   0.55662   0.55010   1.000
    O460    O    0.53398   0.18217   0.55288   1.000
    O461    O    0.49791   0.18178   0.58390   1.000
    O462    O    0.03399   0.18217   0.55288   1.000
    O463    O    0.99791   0.18178   0.58390   1.000
    O464    O    0.99262   0.50382   0.56517   1.000
    O465    O    0.95819   0.44922   0.57820   1.000
    O466    O    0.49261   0.50382   0.56515   1.000
    O467    O    0.45819   0.44922   0.57820   1.000
    O468    O    0.58005   0.21736   0.58803   1.000
    O469    O    0.08006   0.21736   0.58803   1.000
    O470    O    0.76120   0.48304   0.57029   1.000
    O471    O    0.72574   0.44401   0.60154   1.000
    O472    O    0.26122   0.48304   0.57028   1.000
    O473    O    0.22575   0.44401   0.60154   1.000
    O474    O    0.30544   0.50678   0.60850   1.000
    O475    O    0.80542   0.50678   0.60851   1.000
    O476    O    0.52164   0.56272   0.61817   1.000
    O477    O    0.02165   0.56272   0.61819   1.000
    O478    O    0.48605   0.87693   0.58173   1.000
    O479    O    0.45082   0.87369   0.61399   1.000
    O480    O    0.98605   0.87693   0.58173   1.000
    O481    O    0.95081   0.87369   0.61399   1.000
    O482    O    0.53345   0.90348   0.61886   1.000
    O483    O    0.03346   0.90348   0.61883   1.000
    O484    O    0.09005   0.28387   0.63475   1.000
    O485    O    0.12227   0.22189   0.63549   1.000
    O486    O    0.59004   0.28387   0.63478   1.000
    O487    O    0.62226   0.22189   0.63545   1.000
    O488    O    0.19608   0.44972   0.64122   1.000
    O489    O    0.22842   0.38583   0.65516   1.000
    O490    O    0.69607   0.44972   0.64122   1.000
    O491    O    0.72841   0.38583   0.65516   1.000
    O492    O    0.65029   0.45728   0.67789   1.000
    O493    O    0.15030   0.45727   0.67789   1.000
    O494    O    0.10284   0.38248   0.67808   1.000
    O495    O    0.60283   0.38248   0.67810   1.000
    O496    O    0.67602   0.22449   0.69154   1.000
    O497    O    0.17603   0.22449   0.69157   1.000
    O498    O    0.06026   0.96634   0.66342   1.000
    O499    O    0.06587   0.88212   0.67893   1.000
    O500    O    0.56025   0.96634   0.66344   1.000
    O501    O    0.56586   0.88212   0.67896   1.000
    O502    O    0.51582   0.62208   0.66722   1.000
    O503    O    0.55090   0.56798   0.68387   1.000
    O504    O    0.01495   0.62207   0.66707   1.000
    O505    O    0.05091   0.56798   0.68387   1.000
    O506    O    0.22361   0.29736   0.70459   1.000
    O507    O    0.72360   0.29736   0.70459   1.000
    O508    O    0.02129   0.70126   0.72071   1.000
    O509    O    0.52216   0.70126   0.72085   1.000
    O510    O    0.06018   0.79358   0.73444   1.000
    O511    O    0.56017   0.79359   0.73444   1.000
    O512    O    0.09829   0.49559   0.70893   1.000
    O513    O    0.59828   0.49558   0.70893   1.000
    O514    O    0.18816   0.29580   0.76667   1.000
    O515    O    0.22651   0.20444   0.77976   1.000
    O516    O    0.68815   0.29580   0.76667   1.000
    O517    O    0.72650   0.20444   0.77976   1.000
    O518    O    0.02129   0.79180   0.79749   1.000
    O519    O    0.07385   0.72052   0.80912   1.000
    O520    O    0.52590   0.79180   0.79746   1.000
    O521    O    0.57384   0.72052   0.80912   1.000
    O522    O    0.65080   0.99379   0.79076   1.000
    O523    O    0.64691   0.87983   0.82056   1.000
    O524    O    0.59943   0.95291   0.82324   1.000
    O525    O    0.15081   0.99378   0.79076   1.000
    O526    O    0.14692   0.87983   0.82056   1.000
    O527    O    0.09944   0.95291   0.82324   1.000
    O528    O    0.19788   0.06730   0.81560   1.000
    O529    O    0.69787   0.06730   0.81560   1.000
    O530    O    0.18168   0.38168   0.82191   1.000
    O531    O    0.68167   0.38168   0.82191   1.000
    O532    O    0.23252   0.12286   0.83258   1.000
    O533    O    0.73251   0.12286   0.83258   1.000
    O534    O    0.52151   0.87955   0.84747   1.000
    O535    O    0.68754   0.46585   0.83688   1.000
    O536    O    0.18755   0.46585   0.83688   1.000
    O537    O    0.01690   0.87956   0.84750   1.000
    O538    O    0.72702   0.06257   0.88146   1.000
    O539    O    0.22703   0.06257   0.88146   1.000
    O540    O    0.71413   0.40321   0.88196   1.000
    O541    O    0.21414   0.40321   0.88196   1.000
    O542    O    0.16053   0.78079   0.86324   1.000
    O543    O    0.66052   0.78079   0.86324   1.000
    O544    O    0.62840   0.71879   0.86397   1.000
    O545    O    0.12841   0.71879   0.86397   1.000
    O546    O    0.79639   0.37542   0.88628   1.000
    O547    O    0.29640   0.37542   0.88628   1.000
    O548    O    0.55409   0.94335   0.86109   1.000
    O549    O    0.05410   0.94335   0.86109   1.000
    O550    O    0.94480   0.00193   0.89132   1.000
    O551    O    0.44480   0.00193   0.89132   1.000
    O552    O    0.02425   0.93873   0.90042   1.000
    O553    O    0.52425   0.93873   0.90042   1.000
    O554    O    0.17106   0.71458   0.91069   1.000
    O555    O    0.67105   0.71458   0.91069   1.000
    O556    O    0.75334   0.67989   0.91411   1.000
    O557    O    0.25334   0.67989   0.91411   1.000
    O558    O    0.28919   0.94726   0.91995   1.000
    O559    O    0.78918   0.94726   0.91995   1.000
    O560    O    0.76153   0.37757   0.91903   1.000
    O561    O    0.72669   0.37747   0.95287   1.000
    O562    O    0.26154   0.37757   0.91903   1.000
    O563    O    0.22670   0.37747   0.95287   1.000
    O564    O    0.30709   0.35056   0.95314   1.000
    O565    O    0.80708   0.35056   0.95314   1.000
    O566    O    0.75585   0.00285   0.93411   1.000
    O567    O    0.72216   0.05717   0.95008   1.000
    O568    O    0.25586   0.00286   0.93411   1.000
    O569    O    0.22217   0.05717   0.95008   1.000
    O570    O    0.98880   0.97925   0.93050   1.000
    O571    O    0.95567   0.01972   0.95896   1.000
    O572    O    0.48880   0.97925   0.93050   1.000
    O573    O    0.45567   0.01972   0.95896   1.000
    O574    O    0.71750   0.68015   0.94569   1.000
    O575    O    0.21751   0.68015   0.94569   1.000
    O576    O    0.18900   0.11006   0.96709   1.000
    O577    O    0.68899   0.11006   0.96709   1.000
    O578    O    0.92332   0.05978   0.98616   1.000
    O579    O    0.42333   0.05978   0.98616   1.000
    O580    O    0.35143   0.32410   0.98559   1.000
    O581    O    0.85142   0.32410   0.98559   1.000
    O582    O    0.19284   0.37742   0.98737   1.000
    O583    O    0.69283   0.37742   0.98737   1.000
    O584    O    0.35274   0.60818   0.24607   1.000
    O585    O    0.85273   0.60818   0.24607   1.000
    O586    O    0.39875   0.10909   0.25350   1.000
    O587    O    0.89874   0.10909   0.25350   1.000
    O588    O    0.14719   0.39182   0.75391   1.000
    O589    O    0.64718   0.39182   0.75391   1.000
    O590    O    0.10113   0.89089   0.74660   1.000
    O591    O    0.60112   0.89089   0.74660   1.000
loop_
    _geom_bond_atom_site_label_1
    _geom_bond_atom_site_label_2
    _geom_bond_distance
    _geom_bond_site_symmetry_2
    _ccdc_geom_bond_type
    C111   O272      0.67531      .   S
    C255   O272      0.67531      .   S
    C111   O273      0.69644      .   S
    C109   O273      0.69644  1_545   S
    C111   O274      0.69995  1_554   S
    C43    O274      0.69995      .   S
    C110   O275      0.67532      .   S
    C254   O275      0.67532      .   S
    C110   O276      0.69643      .   S
    C108   O276      0.69643  1_545   S
    C110   O277      0.69994  1_554   S
    C42    O277      0.69994      .   S
    C212   O278      0.67508      .   S
    C24    O278      0.67508      .   S
    C213   O279      0.67508      .   S
    C25    O279      0.67508      .   S
    C25    O280      0.69770      .   S
    C23    O280      0.69770      .   S
    C25    O281      0.69578  1_554   S
    C27    O281      0.69578      .   S
    C24    O282      0.69769      .   S
    C22    O282      0.69769      .   S
    C24    O283      0.69578  1_554   S
    C26    O283      0.69578      .   S
    C18    O284      0.67276      .   S
    C208   O284      0.67276      .   S
    C18    O285      0.69652      .   S
    C20    O285      0.69652      .   S
    C18    O286      0.69945  1_554   S
    C16    O286      0.69945      .   S
    C19    O287      0.67277      .   S
    C209   O287      0.67277      .   S
    C19    O288      0.69653      .   S
    C21    O288      0.69653      .   S
    C19    O289      0.69945  1_554   S
    C17    O289      0.69945      .   S
    C38    O290      0.67451      .   S
    C218   O290      0.67451      .   S
    C38    O291      0.69868      .   S
    C98    O291      0.69868      .   S
    C38    O292      0.69806  1_554   S
    C36    O292      0.69806      .   S
    C39    O293      0.67450      .   S
    C219   O293      0.67450      .   S
    C39    O294      0.69868      .   S
    C99    O294      0.69868      .   S
    C39    O295      0.69806  1_554   S
    C37    O295      0.69806      .   S
    C91    O296      0.70117      .   S
    C81    O296      0.70117      .   S
    C91    O297      0.67151      .   S
    C247   O297      0.67151      .   S
    C91    O298      0.69578      .   S
    C89    O298      0.69578  1_556   S
    C90    O299      0.70117      .   S
    C80    O299      0.70117      .   S
    C90    O300      0.67152      .   S
    C246   O300      0.67152      .   S
    C90    O301      0.69578      .   S
    C88    O301      0.69578  1_556   S
    C100   O302      0.69815  1_545   S
    C98    O302      0.69815      .   S
    C100   O303      0.67169      .   S
    C248   O303      0.67169      .   S
    C100   O304      0.69840      .   S
    C102   O304      0.69840  1_556   S
    C101   O305      0.69815  1_545   S
    C99    O305      0.69815      .   S
    C101   O306      0.67167      .   S
    C249   O306      0.67167      .   S
    C101   O307      0.69839      .   S
    C103   O307      0.69839  1_556   S
    C81    O308      0.74975      .   S
    C93    O308      0.74975      .   S
    C81    O309      0.69946      .   S
    C83    O309      0.69946  1_556   S
    C80    O310      0.74975      .   S
    C92    O310      0.74975      .   S
    C80    O311      0.69947      .   S
    C82    O311      0.69947  1_556   S
    C106   O312      0.69939      .   S
    C109   O312      0.69939      .   S
    C106   O313      0.75381      .   S
    C104   O313      0.75381      .   S
    C106   O314      0.69961      .   S
    C46    O314      0.69961  1_556   S
    C107   O315      0.69962  1_655   S
    C108   O315      0.69962      .   S
    C107   O316      0.75326      .   S
    C105   O316      0.75326      .   S
    C107   O317      0.70008      .   S
    C47    O317      0.70008  1_556   S
    C108   O318      0.67284  1_545   S
    C252   O318      0.67284      .   S
    C109   O319      0.67284  1_545   S
    C253   O319      0.67284      .   S
    C98    O320      0.75592      .   S
    C96    O320      0.75592      .   S
    C99    O321      0.75592      .   S
    C97    O321      0.75592      .   S
    C20    O322      0.69655      .   S
    C22    O322      0.69655      .   S
    C20    O323      0.67540      .   S
    C210   O323      0.67540      .   S
    C21    O324      0.69654      .   S
    C23    O324      0.69654      .   S
    C21    O325      0.67539      .   S
    C211   O325      0.67539      .   S
    C22    O326      0.74876      .   S
    C30    O326      0.74876      .   S
    C23    O327      0.74876      .   S
    C31    O327      0.74876      .   S
    C93    O328      0.63532      .   S
    C179   O328      0.63532      .   S
    C93    O329      0.63530      .   S
    C177   O329      0.63530      .   S
    C92    O330      0.63531      .   S
    C178   O330      0.63531      .   S
    C92    O331      0.63531      .   S
    C176   O331      0.63531      .   S
    C105   O332      0.63442      .   S
    C189   O332      0.63442      .   S
    C105   O333      0.63665      .   S
    C190   O333      0.63665      .   S
    C104   O334      0.63441      .   S
    C188   O334      0.63441      .   S
    C104   O335      0.63660      .   S
    C191   O335      0.63660      .   S
    C188   O336      0.98799      .   S
    C10    O336      0.98799      .   S
    C189   O337      0.98798      .   S
    C11    O337      0.98798      .   S
    C179   O338      0.98722      .   S
    C9     O338      0.98722      .   S
    C178   O339      0.98721      .   S
    C8     O339      0.98721      .   S
    C177   O340      0.99727      .   S
    C11    O340      0.99727      .   S
    C176   O341      0.99726      .   S
    C10    O341      0.99726      .   S
    C30    O342      0.61644      .   S
    C148   O342      0.61644      .   S
    C30    O343      0.65915      .   S
    C150   O343      0.65915      .   S
    C31    O344      0.61643      .   S
    C149   O344      0.61643      .   S
    C31    O345      0.65914      .   S
    C151   O345      0.65914      .   S
    C97    O346      0.63722      .   S
    C187   O346      0.63722      .   S
    C97    O347      0.63354      .   S
    C185   O347      0.63354      .   S
    C96    O348      0.63723      .   S
    C186   O348      0.63723      .   S
    C96    O349      0.63355      .   S
    C184   O349      0.63355      .   S
    C190   O350      1.00025      .   S
    C9     O350      1.00025      .   S
    C191   O351      1.00014      .   S
    C8     O351      1.00014      .   S
    C186   O352      0.99293      .   S
    C12    O352      0.99293      .   S
    C187   O353      0.99293      .   S
    C13    O353      0.99293      .   S
    C151   O354      1.03005      .   S
    C13    O354      1.03005      .   S
    C150   O355      1.03007      .   S
    C12    O355      1.03007      .   S
    C184   O356      0.98097  1_565   S
    C10    O356      0.98097      .   S
    C185   O357      0.98098  1_565   S
    C11    O357      0.98098      .   S
    C8     O358      1.03344      .   S
    C166   O358      1.03344      .   S
    C8     O359      0.99440      .   S
    C203   O359      0.99440      .   S
    C9     O360      1.03343      .   S
    C167   O360      1.03343      .   S
    C9     O361      0.99446      .   S
    C202   O361      0.99446      .   S
    C12    O362      0.99581      .   S
    C206   O362      0.99581      .   S
    C12    O363      0.98514      .   S
    C194   O363      0.98514      .   S
    C13    O364      0.99583      .   S
    C207   O364      0.99583      .   S
    C13    O365      0.98523      .   S
    C195   O365      0.98523      .   S
    C14    O366      0.97992      .   S
    C200   O366      0.97992      .   S
    C14    O367      0.99654      .   S
    C192   O367      0.99654      .   S
    C14    O368      0.98891      .   S
    C204   O368      0.98891      .   S
    C15    O369      0.97990      .   S
    C201   O369      0.97990      .   S
    C15    O370      0.99654      .   S
    C193   O370      0.99654      .   S
    C15    O371      0.98892      .   S
    C205   O371      0.98892      .   S
    C200   O372      0.63398      .   S
    C128   O372      0.63398      .   S
    C201   O373      0.63391      .   S
    C129   O373      0.63391      .   S
    C166   O374      0.65931      .   S
    C62    O374      0.65931      .   S
    C167   O375      0.65930      .   S
    C63    O375      0.65930      .   S
    C202   O376      0.63716      .   S
    C129   O376      0.63716      .   S
    C203   O377      0.63708      .   S
    C128   O377      0.63708      .   S
    C206   O378      0.63634      .   S
    C136   O378      0.63634      .   S
    C207   O379      0.63659      .   S
    C137   O379      0.63659      .   S
    C164   O380      0.61725  1_565   S
    C62    O380      0.61725      .   S
    C165   O381      0.61726  1_565   S
    C63    O381      0.61726      .   S
    C129   O382      0.75534      .   S
    C131   O382      0.75534      .   S
    C128   O383      0.75535      .   S
    C130   O383      0.75535      .   S
    C63    O384      0.74917      .   S
    C55    O384      0.74917      .   S
    C62    O385      0.74916      .   S
    C54    O385      0.74916      .   S
    C194   O386      0.63504      .   S
    C124   O386      0.63504      .   S
    C195   O387      0.63508      .   S
    C125   O387      0.63508      .   S
    C192   O388      0.63528      .   S
    C124   O388      0.63528      .   S
    C193   O389      0.63550      .   S
    C125   O389      0.63550      .   S
    C227   O390      0.67535      .   S
    C53    O390      0.67535      .   S
    C226   O391      0.67536      .   S
    C52    O391      0.67536      .   S
    C204   O392      0.63383      .   S
    C136   O392      0.63383      .   S
    C205   O393      0.63406      .   S
    C137   O393      0.63406      .   S
    C269   O394      0.67590      .   S
    C141   O394      0.67590      .   S
    C268   O395      0.67588      .   S
    C140   O395      0.67588      .   S
    C136   O396      0.75315      .   S
    C138   O396      0.75315      .   S
    C137   O397      0.75260      .   S
    C139   O397      0.75260      .   S
    C124   O398      0.74874      .   S
    C112   O398      0.74874      .   S
    C125   O399      0.74841      .   S
    C113   O399      0.74841      .   S
    C262   O400      0.67135      .   S
    C123   O400      0.67135  1_655   S
    C263   O401      0.67124      .   S
    C122   O401      0.67124      .   S
    C264   O402      0.67205      .   S
    C132   O402      0.67205      .   S
    C265   O403      0.67204      .   S
    C133   O403      0.67204      .   S
    C54    O404      0.69676      .   S
    C53    O404      0.69676      .   S
    C54    O405      0.69822      .   S
    C56    O405      0.69822      .   S
    C55    O406      0.69690  1_655   S
    C52    O406      0.69690      .   S
    C55    O407      0.69821      .   S
    C57    O407      0.69821      .   S
    C52    O408      0.69642      .   S
    C50    O408      0.69642      .   S
    C53    O409      0.69642      .   S
    C51    O409      0.69642      .   S
    C130   O410      0.69896      .   S
    C133   O410      0.69896      .   S
    C130   O411      0.69981      .   S
    C70    O411      0.69981      .   S
    C131   O412      0.69906  1_655   S
    C132   O412      0.69906      .   S
    C131   O413      0.69980      .   S
    C71    O413      0.69980      .   S
    C140   O414      0.69831      .   S
    C138   O414      0.69831      .   S
    C140   O415      0.69660      .   S
    C142   O415      0.69660      .   S
    C141   O416      0.69832      .   S
    C139   O416      0.69832      .   S
    C141   O417      0.69659      .   S
    C143   O417      0.69659      .   S
    C139   O418      0.69984      .   S
    C79    O418      0.69984      .   S
    C138   O419      0.69984      .   S
    C78    O419      0.69984      .   S
    C112   O420      0.69990      .   S
    C122   O420      0.69990      .   S
    C112   O421      0.69880      .   S
    C114   O421      0.69880      .   S
    C113   O422      0.69988      .   S
    C123   O422      0.69988      .   S
    C113   O423      0.69888      .   S
    C115   O423      0.69888      .   S
    C132   O424      0.69797      .   S
    C134   O424      0.69797      .   S
    C133   O425      0.69798      .   S
    C135   O425      0.69798      .   S
    C122   O426      0.69486      .   S
    C121   O426      0.69486      .   S
    C123   O427      0.69493  1_655   S
    C120   O427      0.69493      .   S
    C234   O428      0.67550      .   S
    C70    O428      0.67550      .   S
    C235   O429      0.67546      .   S
    C71    O429      0.67546      .   S
    C70    O430      0.69789      .   S
    C68    O430      0.69789      .   S
    C71    O431      0.69789      .   S
    C69    O431      0.69789      .   S
    C225   O432      0.67181      .   S
    C51    O432      0.67181      .   S
    C224   O433      0.67181      .   S
    C50    O433      0.67181      .   S
    C271   O434      0.67414      .   S
    C143   O434      0.67414      .   S
    C270   O435      0.67412      .   S
    C142   O435      0.67412      .   S
    C57    O436      0.67402      .   S
    C229   O436      0.67402      .   S
    C57    O437      0.69491      .   S
    C58    O437      0.69491  1_455   S
    C56    O438      0.67403      .   S
    C228   O438      0.67403      .   S
    C56    O439      0.69485      .   S
    C59    O439      0.69485      .   S
    C51    O440      0.69886      .   S
    C49    O440      0.69886      .   S
    C50    O441      0.69885      .   S
    C48    O441      0.69885      .   S
    C143   O442      0.69976      .   S
    C75    O442      0.69976      .   S
    C142   O443      0.69977      .   S
    C74    O443      0.69977      .   S
    C78    O444      0.67414      .   S
    C238   O444      0.67414      .   S
    C78    O445      0.69629      .   S
    C76    O445      0.69629      .   S
    C79    O446      0.67414      .   S
    C239   O446      0.67414      .   S
    C79    O447      0.69653      .   S
    C77    O447      0.69653      .   S
    C260   O448      0.67403      .   S
    C120   O448      0.67403      .   S
    C261   O449      0.67404      .   S
    C121   O449      0.67404      .   S
    C114   O450      0.67178      .   S
    C256   O450      0.67178      .   S
    C114   O451      0.69642      .   S
    C116   O451      0.69642      .   S
    C115   O452      0.67162      .   S
    C257   O452      0.67162      .   S
    C115   O453      0.69636      .   S
    C117   O453      0.69636      .   S
    C120   O454      0.69816      .   S
    C118   O454      0.69816      .   S
    C121   O455      0.69817      .   S
    C119   O455      0.69817      .   S
    C135   O456      0.67544      .   S
    C267   O456      0.67544      .   S
    C135   O457      0.69952      .   S
    C67    O457      0.69952      .   S
    C134   O458      0.67544      .   S
    C266   O458      0.67544      .   S
    C134   O459      0.69980      .   S
    C66    O459      0.69980      .   S
    C59    O460      0.69987      .   S
    C49    O460      0.69987      .   S
    C59    O461      0.67116      .   S
    C230   O461      0.67116      .   S
    C58    O462      0.69986      .   S
    C48    O462      0.69986      .   S
    C58    O463      0.67127  1_455   S
    C231   O463      0.67127      .   S
    C69    O464      0.69905      .   S
    C66    O464      0.69905  1_455   S
    C69    O465      0.67202      .   S
    C233   O465      0.67202      .   S
    C68    O466      0.69893      .   S
    C67    O466      0.69893      .   S
    C68    O467      0.67200      .   S
    C232   O467      0.67200      .   S
    C49    O468      0.74836      .   S
    C61    O468      0.74836      .   S
    C48    O469      0.74837      .   S
    C60    O469      0.74837      .   S
    C75    O470      0.69829      .   S
    C77    O470      0.69829      .   S
    C75    O471      0.75253      .   S
    C73    O471      0.75253      .   S
    C74    O472      0.69834      .   S
    C76    O472      0.69834      .   S
    C74    O473      0.75254      .   S
    C72    O473      0.75254      .   S
    C76    O474      0.67352      .   S
    C236   O474      0.67352      .   S
    C77    O475      0.67330      .   S
    C237   O475      0.67330      .   S
    C67    O476      0.75569      .   S
    C65    O476      0.75569      .   S
    C66    O477      0.75538      .   S
    C64    O477      0.75538      .   S
    C116   O478      0.69671      .   S
    C119   O478      0.69671      .   S
    C116   O479      0.67535      .   S
    C258   O479      0.67535      .   S
    C117   O480      0.69686      .   S
    C118   O480      0.69686  1_455   S
    C117   O481      0.67535      .   S
    C259   O481      0.67535      .   S
    C119   O482      0.74913      .   S
    C127   O482      0.74913      .   S
    C118   O483      0.74882      .   S
    C126   O483      0.74882      .   S
    C60    O484      0.63527      .   S
    C160   O484      0.63527      .   S
    C60    O485      0.63506      .   S
    C162   O485      0.63506      .   S
    C61    O486      0.63551      .   S
    C161   O486      0.63551      .   S
    C61    O487      0.63497      .   S
    C163   O487      0.63497      .   S
    C72    O488      0.63406      .   S
    C172   O488      0.63406      .   S
    C72    O489      0.63666      .   S
    C174   O489      0.63666      .   S
    C73    O490      0.63406      .   S
    C173   O490      0.63406      .   S
    C73    O491      0.63665      .   S
    C175   O491      0.63665      .   S
    C173   O492      0.98894      .   S
    C7     O492      0.98894      .   S
    C172   O493      0.98895      .   S
    C6     O493      0.98895      .   S
    C160   O494      0.99688      .   S
    C6     O494      0.99688      .   S
    C161   O495      0.99667      .   S
    C7     O495      0.99667      .   S
    C163   O496      0.98561      .   S
    C5     O496      0.98561      .   S
    C162   O497      0.98520      .   S
    C4     O497      0.98520      .   S
    C126   O498      0.61726      .   S
    C196   O498      0.61726  1_545   S
    C126   O499      0.65957      .   S
    C198   O499      0.65957      .   S
    C127   O500      0.61718      .   S
    C197   O500      0.61718  1_545   S
    C127   O501      0.65935      .   S
    C199   O501      0.65935      .   S
    C65    O502      0.63704      .   S
    C170   O502      0.63704      .   S
    C65    O503      0.63389      .   S
    C169   O503      0.63389      .   S
    C64    O504      0.65047      .   S
    C171   O504      0.65047      .   S
    C64    O505      0.63390      .   S
    C168   O505      0.63390      .   S
    C174   O506      0.99546      .   S
    C4     O506      0.99546      .   S
    C175   O507      0.99544      .   S
    C5     O507      0.99544      .   S
    C171   O508      1.00341      .   S
    C0     O508      1.00341      .   S
    C170   O509      0.99449      .   S
    C1     O509      0.99449      .   S
    C198   O510      1.03338      .   S
    C0     O510      1.03338      .   S
    C199   O511      1.03339      .   S
    C1     O511      1.03339      .   S
    C168   O512      0.97985      .   S
    C6     O512      0.97985      .   S
    C169   O513      0.97985      .   S
    C7     O513      0.97985      .   S
    C4     O514      1.03040      .   S
    C182   O514      1.03040      .   S
    C4     O515      0.99274      .   S
    C154   O515      0.99274      .   S
    C5     O516      1.03041      .   S
    C183   O516      1.03041      .   S
    C5     O517      0.99274      .   S
    C155   O517      0.99274      .   S
    C0     O518      1.07230      .   S
    C159   O518      1.07230      .   S
    C0     O519      0.98729      .   S
    C146   O519      0.98729      .   S
    C1     O520      0.99972      .   S
    C158   O520      0.99972      .   S
    C1     O521      0.98728      .   S
    C147   O521      0.98728      .   S
    C3     O522      0.98057      .   S
    C153   O522      0.98057  1_545   S
    C3     O523      0.99710      .   S
    C145   O523      0.99710      .   S
    C3     O524      0.98828      .   S
    C157   O524      0.98828      .   S
    C2     O525      0.98059      .   S
    C152   O525      0.98059  1_545   S
    C2     O526      0.99710      .   S
    C144   O526      0.99710      .   S
    C2     O527      0.98827      .   S
    C156   O527      0.98827      .   S
    C152   O528      0.63352      .   S
    C32    O528      0.63352      .   S
    C153   O529      0.63352      .   S
    C33    O529      0.63352      .   S
    C182   O530      0.65922      .   S
    C94    O530      0.65922      .   S
    C183   O531      0.65922      .   S
    C95    O531      0.65922      .   S
    C154   O532      0.63724      .   S
    C32    O532      0.63724      .   S
    C155   O533      0.63725      .   S
    C33    O533      0.63725      .   S
    C158   O534      0.63690      .   S
    C41    O534      0.63690      .   S
    C181   O535      0.61714      .   S
    C95    O535      0.61714      .   S
    C180   O536      0.61713      .   S
    C94    O536      0.61713      .   S
    C159   O537      0.68711      .   S
    C40    O537      0.68711      .   S
    C33    O538      0.75550      .   S
    C35    O538      0.75550      .   S
    C32    O539      0.75550      .   S
    C34    O539      0.75550      .   S
    C95    O540      0.74874      .   S
    C87    O540      0.74874      .   S
    C94    O541      0.74875      .   S
    C86    O541      0.74875      .   S
    C144   O542      0.63534      .   S
    C28    O542      0.63534      .   S
    C145   O543      0.63534      .   S
    C29    O543      0.63534      .   S
    C147   O544      0.63530      .   S
    C29    O544      0.63530      .   S
    C146   O545      0.63530      .   S
    C28    O545      0.63530      .   S
    C243   O546      0.67540      .   S
    C85    O546      0.67540      .   S
    C242   O547      0.67539      .   S
    C84    O547      0.67539      .   S
    C157   O548      0.63438      .   S
    C41    O548      0.63438      .   S
    C156   O549      0.63439      .   S
    C40    O549      0.63439      .   S
    C221   O550      0.67274      .   S
    C45    O550      0.67274  1_565   S
    C220   O551      0.67274      .   S
    C44    O551      0.67274  1_565   S
    C40    O552      0.75329      .   S
    C42    O552      0.75329      .   S
    C41    O553      0.75328      .   S
    C43    O553      0.75328      .   S
    C28    O554      0.74980      .   S
    C16    O554      0.74980      .   S
    C29    O555      0.74979      .   S
    C17    O555      0.74979      .   S
    C215   O556      0.67154      .   S
    C27    O556      0.67154      .   S
    C214   O557      0.67153      .   S
    C26    O557      0.67153      .   S
    C216   O558      0.67257      .   S
    C36    O558      0.67257      .   S
    C217   O559      0.67252      .   S
    C37    O559      0.67252      .   S
    C87    O560      0.69656      .   S
    C85    O560      0.69656      .   S
    C87    O561      0.69775      .   S
    C89    O561      0.69775      .   S
    C86    O562      0.69655      .   S
    C84    O562      0.69655      .   S
    C86    O563      0.69775      .   S
    C88    O563      0.69775      .   S
    C84    O564      0.69655      .   S
    C82    O564      0.69655      .   S
    C85    O565      0.69655      .   S
    C83    O565      0.69655      .   S
    C35    O566      0.69872      .   S
    C37    O566      0.69872  1_565   S
    C35    O567      0.69962      .   S
    C103   O567      0.69962      .   S
    C34    O568      0.69871      .   S
    C36    O568      0.69871  1_565   S
    C34    O569      0.69963      .   S
    C102   O569      0.69963      .   S
    C45    O570      0.69903      .   S
    C42    O570      0.69903  1_455   S
    C45    O571      0.69697  1_565   S
    C47    O571      0.69697      .   S
    C44    O572      0.69891      .   S
    C43    O572      0.69891      .   S
    C44    O573      0.69697  1_565   S
    C46    O573      0.69697      .   S
    C17    O574      0.70121      .   S
    C27    O574      0.70121      .   S
    C16    O575      0.70120      .   S
    C26    O575      0.70120      .   S
    C250   O576      0.67569      .   S
    C102   O576      0.67569      .   S
    C251   O577      0.67569      .   S
    C103   O577      0.67569      .   S
    C223   O578      0.67538      .   S
    C47    O578      0.67538      .   S
    C222   O579      0.67538      .   S
    C46    O579      0.67538      .   S
    C240   O580      0.67272      .   S
    C82    O580      0.67272      .   S
    C241   O581      0.67270      .   S
    C83    O581      0.67270      .   S
    C88    O582      0.67504      .   S
    C244   O582      0.67504      .   S
    C89    O583      0.67503      .   S
    C245   O583      0.67503      .   S
    C150   O584      1.04553      .   S
    C14    O584      1.04553      .   S
    C151   O585      1.04553      .   S
    C15    O585      1.04553      .   S
    C166   O586      1.04009      .   S
    C10    O586      1.04009      .   S
    C167   O587      1.04010      .   S
    C11    O587      1.04010      .   S
    C182   O588      1.04508      .   S
    C6     O588      1.04508      .   S
    C183   O589      1.04508      .   S
    C7     O589      1.04508      .   S
    C198   O590      1.03976      .   S
    C2     O590      1.03976      .   S
    C199   O591      1.03976      .   S
    C3     O591      1.03976      .   S
