# CIF file generated by openbabel 2.4.90, see http://openbabel.sf.net
data_I
_chemical_name_common ''
_cell_length_a 14.528
_cell_length_b 15.81
_cell_length_c 18.955
_cell_angle_alpha 90.014
_cell_angle_beta 90.794
_cell_angle_gamma 90.077
_space_group_name_H-M_alt 'P 1'
_space_group_name_Hall 'P 1'
loop_
    _symmetry_equiv_pos_as_xyz
    x,y,z
loop_
    _atom_site_label
    _atom_site_type_symbol
    _atom_site_fract_x
    _atom_site_fract_y
    _atom_site_fract_z
    _atom_site_occupancy
    N0      N    0.99973   0.00283   0.49991   1.000
    N1      N    0.49180   0.78214   0.80140   1.000
    N2      N    0.48910   0.28321   0.69804   1.000
    N3      N    0.00048   0.50176   0.00159   1.000
    N4      N    0.50992   0.22058   0.19821   1.000
    N5      N    0.51199   0.72040   0.30203   1.000
    N6      N    0.49955   0.00314   0.00141   1.000
    N7      N    0.98981   0.72035   0.80189   1.000
    N8      N    0.49834   0.50184   0.49996   1.000
    N9      N    0.00841   0.28333   0.19810   1.000
    N10     N    0.01011   0.78267   0.30174   1.000
    N11     N    0.98775   0.22032   0.69804   1.000
    Zr12    Zr   0.99879   0.00187   0.00005   1.000
    O13     O    0.17936   0.97063   0.00817   1.000
    O14     O    0.81900   0.03372   0.99260   1.000
    Zr15    Zr   0.50129   0.50184   0.99999   1.000
    O16     O    0.32065   0.47029   0.99262   1.000
    O17     O    0.68112   0.53336   0.00819   1.000
    Zr18    Zr   0.49985   0.00181   0.50000   1.000
    O19     O    0.67985   0.03361   0.49298   1.000
    O20     O    0.31986   0.97044   0.50700   1.000
    Zr21    Zr   0.99897   0.50173   0.50001   1.000
    O22     O    0.81890   0.53327   0.50701   1.000
    O23     O    0.17843   0.47025   0.49297   1.000
    O24     O    0.48485   0.41689   0.90315   1.000
    O25     O    0.51068   0.60869   0.95066   1.000
    O26     O    0.49165   0.39475   0.04922   1.000
    O27     O    0.51730   0.58676   0.09689   1.000
    O28     O    0.98271   0.08675   0.90316   1.000
    O29     O    0.00759   0.39463   0.54952   1.000
    O30     O    0.50865   0.10891   0.54950   1.000
    O31     O    0.48507   0.91638   0.59635   1.000
    O32     O    0.00830   0.89470   0.95084   1.000
    O33     O    0.98398   0.58672   0.59654   1.000
    O34     O    0.98970   0.10901   0.04921   1.000
    O35     O    0.01386   0.41683   0.40348   1.000
    O36     O    0.01488   0.91678   0.09682   1.000
    O37     O    0.99044   0.60864   0.45043   1.000
    O38     O    0.51527   0.08683   0.40351   1.000
    O39     O    0.49147   0.89470   0.45050   1.000
loop_
    _geom_bond_atom_site_label_1
    _geom_bond_atom_site_label_2
    _geom_bond_distance
    _geom_bond_site_symmetry_2
    _ccdc_geom_bond_type
    Zr12   O13       2.67247  1_645   S
    N6     O13       4.68283  1_545   S
    Zr12   O14       2.66262  1_554   S
    N6     O14       4.67069  1_554   S
    Zr15   O16       2.67243      .   S
    N3     O16       4.68412  1_554   S
    Zr15   O17       2.66133  1_556   S
    N3     O17       4.67058  1_455   S
    Zr18   O19       2.66735      .   S
    N0     O19       4.67330      .   S
    Zr18   O20       2.66595  1_545   S
    N0     O20       4.67980  1_645   S
    Zr21   O22       2.66891      .   S
    N8     O22       4.68291      .   S
    Zr21   O23       2.66003  1_655   S
    N8     O23       4.67386      .   S
    Zr15   O24       2.28391      .   S
    N2     O24       4.42598      .   S
    Zr15   O25       1.93653      .   S
    N1     O25       3.94755      .   S
    Zr15   O26       1.93932  1_556   S
    N4     O26       3.95145      .   S
    Zr15   O27       2.28389  1_556   S
    N5     O27       4.42656      .   S
    N11    O28       4.42639      .   S
    Zr12   O28       2.28437  1_554   S
    N11    O29       3.95325  1_655   S
    Zr21   O29       1.93949  1_655   S
    N2     O30       3.95241      .   S
    Zr18   O30       1.93895      .   S
    N1     O31       4.42885      .   S
    Zr18   O31       2.28413  1_545   S
    N7     O32       3.95142  1_655   S
    Zr12   O32       1.93995  1_644   S
    N7     O33       4.42823      .   S
    Zr21   O33       2.28277      .   S
    N9     O34       3.95061  1_455   S
    Zr12   O34       1.93866      .   S
    N9     O35       4.42757      .   S
    Zr21   O35       2.28188  1_655   S
    N10    O36       4.42708      .   S
    Zr12   O36       2.28453  1_645   S
    N10    O37       3.95224  1_455   S
    Zr21   O37       1.93729      .   S
    Zr18   O38       2.28345      .   S
    N4     O38       4.42900      .   S
    Zr18   O39       1.93855  1_545   S
    N5     O39       3.95282      .   S
