# CIF file generated by openbabel 2.4.90, see http://openbabel.sf.net
data_I
_chemical_name_common ''
_cell_length_a 14.528
_cell_length_b 15.81
_cell_length_c 18.955
_cell_angle_alpha 90.014
_cell_angle_beta 90.794
_cell_angle_gamma 90.077
_space_group_name_H-M_alt 'P 1'
_space_group_name_Hall 'P 1'
loop_
    _symmetry_equiv_pos_as_xyz
    x,y,z
loop_
    _atom_site_label
    _atom_site_type_symbol
    _atom_site_fract_x
    _atom_site_fract_y
    _atom_site_fract_z
    _atom_site_occupancy
    Zr0     Zr   0.47223   0.57353   0.03946   1.000
    Zr1     Zr   0.65693   0.64040   0.03439   1.000
    Zr2     Zr   0.53105   0.93003   0.53981   1.000
    Zr3     Zr   0.34452   0.86297   0.53115   1.000
    Zr4     Zr   0.53108   0.42988   0.96049   1.000
    Zr5     Zr   0.34403   0.36349   0.96577   1.000
    Zr6     Zr   0.46880   0.07360   0.46016   1.000
    Zr7     Zr   0.65552   0.14053   0.46889   1.000
    Zr8     Zr   0.02804   0.07364   0.96063   1.000
    Zr9     Zr   0.84335   0.14034   0.96567   1.000
    Zr10    Zr   0.96806   0.43008   0.46014   1.000
    Zr11    Zr   0.15288   0.36317   0.46877   1.000
    Zr12    Zr   0.96887   0.92990   0.03948   1.000
    Zr13    Zr   0.15583   0.86352   0.03434   1.000
    Zr14    Zr   0.03075   0.57374   0.53987   1.000
    Zr15    Zr   0.84389   0.64005   0.53127   1.000
    Zr16    Zr   0.65282   0.49546   0.03483   1.000
    Zr17    Zr   0.35016   0.00787   0.53475   1.000
    Zr18    Zr   0.35047   0.50840   0.96510   1.000
    Zr19    Zr   0.64930   0.99579   0.46520   1.000
    Zr20    Zr   0.84731   0.99552   0.96517   1.000
    Zr21    Zr   0.14891   0.50794   0.46514   1.000
    Zr22    Zr   0.14951   0.00841   0.03496   1.000
    Zr23    Zr   0.84943   0.49531   0.53486   1.000
    Zr24    Zr   0.59723   0.52217   0.00925   1.000
    Zr25    Zr   0.40456   0.98130   0.50906   1.000
    Zr26    Zr   0.40555   0.48141   0.99063   1.000
    Zr27    Zr   0.59492   0.02236   0.49098   1.000
    Zr28    Zr   0.90293   0.02219   0.99078   1.000
    Zr29    Zr   0.09409   0.48152   0.49084   1.000
    Zr30    Zr   0.09446   0.98141   0.00936   1.000
    Zr31    Zr   0.90376   0.52205   0.50919   1.000
    O32     O    0.62503   0.50881   0.02204   1.000
    O33     O    0.56416   0.47602   0.98487   1.000
    O34     O    0.12199   0.99491   0.02216   1.000
    O35     O    0.06125   0.02752   0.98499   1.000
    O36     O    0.43889   0.52747   0.01505   1.000
    O37     O    0.93590   0.97605   0.01513   1.000
    O38     O    0.93591   0.47606   0.48467   1.000
    O39     O    0.43668   0.02745   0.48461   1.000
    O40     O    0.12150   0.49473   0.47799   1.000
    O41     O    0.62211   0.00908   0.47809   1.000
    O42     O    0.06242   0.52763   0.51535   1.000
    O43     O    0.56298   0.97620   0.51540   1.000
    O44     O    0.37736   0.99458   0.52190   1.000
    O45     O    0.87660   0.50868   0.52202   1.000
    O46     O    0.37801   0.49491   0.97786   1.000
    O47     O    0.87512   0.00886   0.97798   1.000
    O48     O    0.53473   0.54785   0.02436   1.000
    O49     O    0.62708   0.58128   0.02182   1.000
    O50     O    0.46780   0.95566   0.52443   1.000
    O51     O    0.37454   0.92213   0.52010   1.000
    O52     O    0.46832   0.45565   0.97556   1.000
    O53     O    0.37479   0.42245   0.97820   1.000
    O54     O    0.53186   0.04798   0.47557   1.000
    O55     O    0.62522   0.08145   0.47994   1.000
    O56     O    0.96548   0.04792   0.97571   1.000
    O57     O    0.87314   0.08126   0.97823   1.000
    O58     O    0.03108   0.45580   0.47549   1.000
    O59     O    0.12349   0.42234   0.47980   1.000
    O60     O    0.03167   0.95566   0.02442   1.000
    O61     O    0.12515   0.92247   0.02185   1.000
    O62     O    0.96725   0.54790   0.52453   1.000
    O63     O    0.87382   0.58105   0.52023   1.000
    N64     N    0.99973   0.00283   0.49991   1.000
    O65     O    0.13987   0.93908   0.51399   1.000
    O66     O    0.85984   0.06541   0.48596   1.000
    N67     N    0.49180   0.78214   0.80140   1.000
    O68     O    0.51149   0.84667   0.69468   1.000
    O69     O    0.42911   0.81523   0.69073   1.000
    O70     O    0.47891   0.70029   0.90199   1.000
    O71     O    0.56122   0.73077   0.90066   1.000
    N72     N    0.48910   0.28321   0.69804   1.000
    O73     O    0.50985   0.34719   0.80516   1.000
    O74     O    0.42697   0.31670   0.80745   1.000
    O75     O    0.47600   0.20082   0.59751   1.000
    O76     O    0.55889   0.23122   0.60050   1.000
    N77     N    0.00048   0.50176   0.00159   1.000
    O78     O    0.14001   0.43873   0.98526   1.000
    O79     O    0.86094   0.56488   0.01639   1.000
    N80     N    0.50992   0.22058   0.19821   1.000
    O81     O    0.48930   0.15651   0.30509   1.000
    O82     O    0.57207   0.18720   0.30894   1.000
    O83     O    0.52349   0.30279   0.09781   1.000
    O84     O    0.44054   0.27251   0.09909   1.000
    N85     N    0.51199   0.72040   0.30203   1.000
    O86     O    0.49217   0.65634   0.19484   1.000
    O87     O    0.57443   0.68702   0.19274   1.000
    O88     O    0.52450   0.80282   0.40252   1.000
    O89     O    0.44167   0.77238   0.39948   1.000
    N90     N    0.49955   0.00314   0.00141   1.000
    O91     O    0.63920   0.06557   0.98514   1.000
    O92     O    0.35994   0.93939   0.01629   1.000
    N93     N    0.98981   0.72035   0.80189   1.000
    O94     O    0.01037   0.65645   0.69497   1.000
    O95     O    0.92759   0.68695   0.69115   1.000
    O96     O    0.97636   0.80266   0.90224   1.000
    O97     O    0.05926   0.77240   0.90101   1.000
    N98     N    0.49834   0.50184   0.49996   1.000
    O99     O    0.35788   0.43876   0.48593   1.000
    O100    O    0.63883   0.56480   0.51401   1.000
    N101    N    0.00841   0.28333   0.19810   1.000
    O102    O    0.98763   0.34726   0.30501   1.000
    O103    O    0.06988   0.31660   0.30889   1.000
    O104    O    0.02178   0.20096   0.09780   1.000
    O105    O    0.93947   0.23135   0.09894   1.000
    N106    N    0.01011   0.78267   0.30174   1.000
    O107    O    0.98955   0.84692   0.19471   1.000
    O108    O    0.07239   0.81647   0.19247   1.000
    O109    O    0.02343   0.70058   0.40237   1.000
    O110    O    0.94040   0.73049   0.39934   1.000
    N111    N    0.98775   0.22032   0.69804   1.000
    O112    O    0.97505   0.30275   0.59752   1.000
    O113    O    0.05739   0.27231   0.60053   1.000
    O114    O    0.00776   0.15633   0.80523   1.000
    O115    O    0.92552   0.18694   0.80733   1.000
loop_
    _geom_bond_atom_site_label_1
    _geom_bond_atom_site_label_2
    _geom_bond_distance
    _geom_bond_site_symmetry_2
    _ccdc_geom_bond_type
    Zr24   O32       0.51375      .   S
    Zr16   O32       0.51375      .   S
    Zr24   O33       0.98458  1_554   S
    Zr4    O33       0.98458      .   S
    Zr30   O34       0.51122      .   S
    Zr22   O34       0.51122  1_545   S
    Zr30   O35       0.98622  1_564   S
    Zr8    O35       0.98622      .   S
    Zr0    O36       0.98578      .   S
    Zr26   O36       0.98578  1_556   S
    Zr12   O37       0.98473      .   S
    Zr28   O37       0.98473  1_546   S
    Zr10   O38       0.98466      .   S
    Zr31   O38       0.98466      .   S
    Zr6    O39       0.98498      .   S
    Zr25   O39       0.98498  1_565   S
    Zr21   O40       0.51376      .   S
    Zr29   O40       0.51376      .   S
    Zr19   O41       0.51261  1_565   S
    Zr27   O41       0.51261      .   S
    Zr29   O42       0.98278      .   S
    Zr14   O42       0.98278      .   S
    Zr27   O43       0.98352  1_545   S
    Zr2    O43       0.98352      .   S
    Zr25   O44       0.51226      .   S
    Zr17   O44       0.51226  1_545   S
    Zr31   O45       0.51192      .   S
    Zr23   O45       0.51192      .   S
    Zr18   O46       0.51162      .   S
    Zr26   O46       0.51162      .   S
    Zr20   O47       0.51349  1_565   S
    Zr28   O47       0.51349      .   S
    Zr24   O48       1.03896      .   S
    Zr0    O48       1.03896      .   S
    Zr24   O49       1.05556      .   S
    Zr1    O49       1.05556      .   S
    Zr25   O50       1.04265      .   S
    Zr2    O50       1.04265      .   S
    Zr25   O51       1.05378      .   S
    Zr3    O51       1.05378      .   S
    Zr26   O52       1.04268      .   S
    Zr4    O52       1.04268      .   S
    Zr26   O53       1.05832      .   S
    Zr5    O53       1.05832      .   S
    Zr27   O54       1.04036      .   S
    Zr6    O54       1.04036      .   S
    Zr27   O55       1.05437      .   S
    Zr7    O55       1.05437      .   S
    Zr28   O56       1.03888      .   S
    Zr8    O56       1.03888  1_455   S
    Zr28   O57       1.05570      .   S
    Zr9    O57       1.05570      .   S
    Zr29   O58       1.03907      .   S
    Zr10   O58       1.03907  1_655   S
    Zr29   O59       1.05108      .   S
    Zr11   O59       1.05108      .   S
    Zr30   O60       1.04205      .   S
    Zr12   O60       1.04205  1_655   S
    Zr30   O61       1.05898      .   S
    Zr13   O61       1.05898      .   S
    Zr31   O62       1.04591      .   S
    Zr14   O62       1.04591  1_455   S
    Zr31   O63       1.05195      .   S
    Zr15   O63       1.05195      .   S
    N64    O65       2.28540  1_645   S
    Zr3    O65       3.22116      .   S
    N64    O66       2.27364      .   S
    Zr7    O66       3.21086      .   S
    N67    O68       2.28715      .   S
    Zr2    O68       3.23415      .   S
    N67    O69       2.33519      .   S
    Zr3    O69       3.33611      .   S
    N67    O70       2.31414      .   S
    Zr0    O70       3.29003  1_554   S
    N67    O71       2.27296      .   S
    Zr1    O71       3.21096  1_554   S
    N72    O73       2.28438      .   S
    Zr4    O73       3.23187      .   S
    N72    O74       2.33426      .   S
    Zr5    O74       3.33260      .   S
    N72    O75       2.31342      .   S
    Zr6    O75       3.29001      .   S
    N72    O76       2.27487      .   S
    Zr7    O76       3.21720      .   S
    N77    O78       2.28495  1_554   S
    Zr5    O78       3.22114      .   S
    N77    O79       2.28148  1_455   S
    Zr1    O79       3.21934      .   S
    N80    O81       2.28835      .   S
    Zr6    O81       3.23601      .   S
    N80    O82       2.33416      .   S
    Zr7    O82       3.33289      .   S
    N80    O83       2.31541      .   S
    Zr4    O83       3.29153  1_556   S
    N80    O84       2.27399      .   S
    Zr5    O84       3.21406  1_556   S
    N85    O86       2.28445      .   S
    Zr0    O86       3.23195      .   S
    N85    O87       2.33361      .   S
    Zr1    O87       3.33010      .   S
    N85    O88       2.31249      .   S
    Zr2    O88       3.28890      .   S
    N85    O89       2.27709      .   S
    Zr3    O89       3.22089      .   S
    N90    O91       2.27989  1_554   S
    Zr9    O91       3.21727      .   S
    N90    O92       2.28471  1_545   S
    Zr13   O92       3.21989      .   S
    N93    O94       2.28775  1_655   S
    Zr14   O94       3.23487      .   S
    N93    O95       2.33402      .   S
    Zr15   O95       3.33286      .   S
    N93    O96       2.31502      .   S
    Zr12   O96       3.29119  1_554   S
    N93    O97       2.27356  1_655   S
    Zr13   O97       3.21341  1_554   S
    N98    O99       2.28222      .   S
    Zr11   O99       3.21985      .   S
    N98    O100      2.28185      .   S
    Zr15   O100      3.21882      .   S
    N101   O102      2.28824  1_455   S
    Zr10   O102      3.23487      .   S
    N101   O103      2.33041      .   S
    Zr11   O103      3.32797      .   S
    N101   O104      2.31472      .   S
    Zr8    O104      3.29018  1_556   S
    N101   O105      2.27069  1_455   S
    Zr9    O105      3.20886  1_556   S
    N106   O107      2.28523  1_455   S
    Zr12   O107      3.23214      .   S
    N106   O108      2.33344      .   S
    Zr13   O108      3.33261      .   S
    N106   O109      2.31339      .   S
    Zr14   O109      3.28948      .   S
    N106   O110      2.27581  1_455   S
    Zr15   O110      3.21828      .   S
    N111   O112      2.31414      .   S
    Zr10   O112      3.29229      .   S
    N111   O113      2.27290  1_655   S
    Zr11   O113      3.21219      .   S
    N111   O114      2.28493  1_655   S
    Zr8    O114      3.23287      .   S
    N111   O115      2.33193      .   S
    Zr9    O115      3.32779      .   S
