# CIF file generated by openbabel 2.4.90, see http://openbabel.sf.net
data_I
_chemical_name_common ''
_cell_length_a 14.528
_cell_length_b 15.81
_cell_length_c 18.955
_cell_angle_alpha 90.014
_cell_angle_beta 90.794
_cell_angle_gamma 90.077
_space_group_name_H-M_alt 'P 1'
_space_group_name_Hall 'P 1'
loop_
    _symmetry_equiv_pos_as_xyz
    x,y,z
loop_
    _atom_site_label
    _atom_site_type_symbol
    _atom_site_fract_x
    _atom_site_fract_y
    _atom_site_fract_z
    _atom_site_occupancy
    N0      N    0.99973   0.00283   0.49991   1.000
    N1      N    0.49180   0.78214   0.80140   1.000
    N2      N    0.48910   0.28321   0.69804   1.000
    N3      N    0.00048   0.50176   0.00159   1.000
    N4      N    0.50992   0.22058   0.19821   1.000
    N5      N    0.51199   0.72040   0.30203   1.000
    N6      N    0.49955   0.00314   0.00141   1.000
    N7      N    0.98981   0.72035   0.80189   1.000
    N8      N    0.49834   0.50184   0.49996   1.000
    N9      N    0.00841   0.28333   0.19810   1.000
    N10     N    0.01011   0.78267   0.30174   1.000
    N11     N    0.98775   0.22032   0.69804   1.000
    Zr12    Zr   0.99879   0.00187   0.00005   1.000
    O13     O    0.17936   0.97063   0.00817   1.000
    O14     O    0.02902   0.88713   0.95053   1.000
    O15     O    0.03559   0.90917   0.09626   1.000
    O16     O    0.01028   0.10142   0.04892   1.000
    O17     O    0.00327   0.07910   0.90264   1.000
    O18     O    0.98757   0.90226   0.95114   1.000
    O19     O    0.99417   0.92439   0.09738   1.000
    O20     O    0.81900   0.03372   0.99260   1.000
    O21     O    0.96215   0.09440   0.90369   1.000
    O22     O    0.96913   0.11661   0.04950   1.000
    Zr23    Zr   0.50129   0.50184   0.99999   1.000
    O24     O    0.32065   0.47029   0.99262   1.000
    O25     O    0.46413   0.40927   0.90372   1.000
    O26     O    0.47092   0.38718   0.04954   1.000
    O27     O    0.50557   0.42452   0.90258   1.000
    O28     O    0.51239   0.40232   0.04890   1.000
    O29     O    0.68112   0.53336   0.00819   1.000
    O30     O    0.53125   0.61631   0.95032   1.000
    O31     O    0.53786   0.59443   0.09636   1.000
    O32     O    0.49010   0.60107   0.95099   1.000
    O33     O    0.49673   0.57909   0.09741   1.000
    Zr34    Zr   0.49985   0.00181   0.50000   1.000
    O35     O    0.48793   0.10131   0.54876   1.000
    O36     O    0.49458   0.07916   0.40254   1.000
    O37     O    0.52937   0.11651   0.55025   1.000
    O38     O    0.67985   0.03361   0.49298   1.000
    O39     O    0.53596   0.09450   0.40447   1.000
    O40     O    0.46448   0.90852   0.59536   1.000
    O41     O    0.31986   0.97044   0.50700   1.000
    O42     O    0.47076   0.88710   0.44974   1.000
    O43     O    0.50567   0.92424   0.59734   1.000
    O44     O    0.51218   0.90231   0.45126   1.000
    Zr45    Zr   0.99897   0.50173   0.50001   1.000
    O46     O    0.99330   0.42449   0.40251   1.000
    O47     O    0.98701   0.40224   0.54877   1.000
    O48     O    0.96328   0.59434   0.59558   1.000
    O49     O    0.81890   0.53327   0.50701   1.000
    O50     O    0.96969   0.61611   0.44968   1.000
    O51     O    0.17843   0.47025   0.49297   1.000
    O52     O    0.03443   0.40917   0.40445   1.000
    O53     O    0.02818   0.38702   0.55027   1.000
    O54     O    0.00467   0.57909   0.59749   1.000
    O55     O    0.01120   0.60116   0.45119   1.000
loop_
    _geom_bond_atom_site_label_1
    _geom_bond_atom_site_label_2
    _geom_bond_distance
    _geom_bond_site_symmetry_2
    _ccdc_geom_bond_type
    Zr12   O13       2.67247  1_645   S
    N6     O13       4.68283  1_545   S
    Zr12   O14       2.09216  1_644   S
    N7     O14       3.89393  1_655   S
    Zr12   O15       2.39503  1_645   S
    N10    O15       4.39867      .   S
    Zr12   O16       1.83234  1_655   S
    N9     O16       4.03319      .   S
    Zr12   O17       2.21556  1_654   S
    N11    O17       4.47845  1_655   S
    Zr12   O18       1.83302  1_544   S
    N7     O18       4.03422      .   S
    Zr12   O19       2.21644  1_545   S
    N10    O19       4.47889  1_455   S
    Zr12   O20       2.66262  1_554   S
    N6     O20       4.67069  1_554   S
    Zr12   O21       2.39504  1_554   S
    N11    O21       4.39745      .   S
    Zr12   O22       2.08980      .   S
    N9     O22       3.89306  1_455   S
    Zr23   O24       2.67243      .   S
    N3     O24       4.68412  1_554   S
    Zr23   O25       2.39432      .   S
    N2     O25       4.39783      .   S
    Zr23   O26       2.09127  1_556   S
    N4     O26       3.89411      .   S
    Zr23   O27       2.21590      .   S
    N2     O27       4.47753      .   S
    Zr23   O28       1.83266  1_556   S
    N4     O28       4.03409      .   S
    Zr23   O29       2.66133  1_556   S
    N3     O29       4.67058  1_455   S
    Zr23   O30       2.08826      .   S
    N1     O30       3.89012      .   S
    Zr23   O31       2.39409  1_556   S
    N5     O31       4.39815      .   S
    Zr23   O32       1.82954      .   S
    N1     O32       4.03002      .   S
    Zr23   O33       2.21556  1_556   S
    N5     O33       4.47808      .   S
    Zr34   O35       1.83398      .   S
    N2     O35       4.03384      .   S
    Zr34   O36       2.21616      .   S
    N4     O36       4.48064      .   S
    Zr34   O37       2.08942      .   S
    N2     O37       3.89632      .   S
    Zr34   O38       2.66735      .   S
    N0     O38       4.67330      .   S
    Zr34   O39       2.39316      .   S
    N4     O39       4.40070      .   S
    Zr34   O40       2.39415  1_545   S
    N1     O40       4.40064      .   S
    Zr34   O41       2.66595  1_545   S
    N0     O41       4.67980  1_645   S
    Zr34   O42       2.08836  1_545   S
    N5     O42       3.89755      .   S
    Zr34   O43       2.21644  1_545   S
    N1     O43       4.48040      .   S
    Zr34   O44       1.83430  1_545   S
    N5     O44       4.03345      .   S
    Zr45   O46       2.21536      .   S
    N9     O46       4.47909  1_455   S
    Zr45   O47       1.83380      .   S
    N11    O47       4.03515      .   S
    Zr45   O48       2.39189      .   S
    N7     O48       4.40034      .   S
    Zr45   O49       2.66891      .   S
    N8     O49       4.68291      .   S
    Zr45   O50       2.08639      .   S
    N10    O50       3.89709  1_455   S
    Zr45   O51       2.66003  1_655   S
    N8     O51       4.67386      .   S
    Zr45   O52       2.39051  1_655   S
    N9     O52       4.39920      .   S
    Zr45   O53       2.09011  1_655   S
    N11    O53       3.89642  1_655   S
    Zr45   O54       2.21616  1_655   S
    N7     O54       4.47949  1_655   S
    Zr45   O55       1.83394  1_655   S
    N10    O55       4.03277      .   S
