# CIF file generated by openbabel 2.4.90, see http://openbabel.sf.net
data_I
_chemical_name_common ''
_cell_length_a 11.671
_cell_length_b 12.279
_cell_length_c 14.179
_cell_angle_alpha 90.002
_cell_angle_beta 127.997
_cell_angle_gamma 89.983
_space_group_name_H-M_alt 'P 1'
_space_group_name_Hall 'P 1'
loop_
    _symmetry_equiv_pos_as_xyz
    x,y,z
loop_
    _atom_site_label
    _atom_site_type_symbol
    _atom_site_fract_x
    _atom_site_fract_y
    _atom_site_fract_z
    _atom_site_occupancy
    H0      H    0.24928   0.92143   0.46596   1.000
    H1      H    0.22450   0.93118   0.27784   1.000
    H2      H    0.81697   0.07284   0.09280   1.000
    H3      H    0.82089   0.06765   0.26755   1.000
    H4      H    0.25068   0.42153   0.53409   1.000
    H5      H    0.27545   0.43127   0.72221   1.000
    H6      H    0.68283   0.57288   0.90720   1.000
    H7      H    0.67892   0.56770   0.73246   1.000
    C8      C    0.15131   0.95583   0.38481   1.000
    C9      C    0.91143   0.04018   0.17720   1.000
    C10     C    0.34863   0.45592   0.61524   1.000
    C11     C    0.58840   0.54023   0.82280   1.000
    N12     N    0.02079   0.00286   0.17798   1.000
    N13     N    0.47911   0.50291   0.82205   1.000
loop_
    _geom_bond_atom_site_label_1
    _geom_bond_atom_site_label_2
    _geom_bond_distance
    _geom_bond_site_symmetry_2
    _ccdc_geom_bond_type
    H2     C9        1.08797      .   S
    C9     N12       1.34962  1_655   S
    C8     H0        1.09075      .   S
    H4     C10       1.09080      .   S
    N13    C11       1.34928      .   S
    C11    H6        1.08805      .   S
