# CIF file generated by openbabel 2.4.90, see http://openbabel.sf.net
data_I
_chemical_name_common ''
_cell_length_a 11.671
_cell_length_b 12.279
_cell_length_c 14.179
_cell_angle_alpha 90.002
_cell_angle_beta 127.997
_cell_angle_gamma 89.983
_space_group_name_H-M_alt 'P 1'
_space_group_name_Hall 'P 1'
loop_
    _symmetry_equiv_pos_as_xyz
    x,y,z
loop_
    _atom_site_label
    _atom_site_type_symbol
    _atom_site_fract_x
    _atom_site_fract_y
    _atom_site_fract_z
    _atom_site_occupancy
    N0      N    0.49997   0.99995   0.00003   1.000
    N1      N    0.97949   0.00063   0.65751   1.000
    N2      N    0.99643   0.49995   0.00002   1.000
    N3      N    0.91639   0.03863   0.14933   1.000
    N4      N    0.52046   0.50104   0.34191   1.000
    N5      N    0.58345   0.53867   0.85068   1.000
    N6      N    0.29966   0.43872   0.57466   1.000
    N7      N    0.20030   0.93863   0.42538   1.000
    N8      N    0.27545   0.43127   0.72221   1.000
    N9      N    0.22450   0.93118   0.27784   1.000
    N10     N    0.82089   0.06765   0.26755   1.000
    N11     N    0.67892   0.56770   0.73246   1.000
    Zr12    Zr   0.02275   0.99795   0.31060   1.000
    O13     O    0.93354   0.02896   0.29020   1.000
    O14     O    0.96874   0.01827   0.24935   1.000
    O15     O    0.11295   0.96834   0.29462   1.000
    O16     O    0.09775   0.97329   0.34488   1.000
    O17     O    0.01046   0.00417   0.25001   1.000
    Zr18    Zr   0.47716   0.49800   0.68942   1.000
    O19     O    0.56632   0.52901   0.70982   1.000
    O20     O    0.53113   0.51831   0.75067   1.000
    O21     O    0.40218   0.47336   0.65515   1.000
    O22     O    0.38698   0.46841   0.70541   1.000
    O23     O    0.48944   0.50422   0.75001   1.000
loop_
    _geom_bond_atom_site_label_1
    _geom_bond_atom_site_label_2
    _geom_bond_distance
    _geom_bond_site_symmetry_2
    _ccdc_geom_bond_type
    Zr12   O13       0.97033  1_465   S
    N10    O13       1.23992      .   S
    Zr12   O14       0.73466  1_465   S
    N3     O14       1.17482      .   S
    Zr12   O15       1.25897      .   S
    N9     O15       1.53005      .   S
    Zr12   O16       0.75507      .   S
    N7     O16       1.11093      .   S
    Zr12   O17       0.78270  1_565   S
    N3     O17       1.22166  1_655   S
    Zr18   O19       0.97009      .   S
    N11    O19       1.23967      .   S
    Zr18   O20       0.73466      .   S
    N5     O20       1.17489      .   S
    Zr18   O21       0.75501      .   S
    N6     O21       1.11082      .   S
    Zr18   O22       1.25898      .   S
    N8     O22       1.53005      .   S
    Zr18   O23       0.78281      .   S
    N5     O23       1.22162      .   S
