# CIF file generated by openbabel 2.4.90, see http://openbabel.sf.net
data_I
_chemical_name_common ''
_cell_length_a 11.671
_cell_length_b 12.279
_cell_length_c 14.179
_cell_angle_alpha 90.002
_cell_angle_beta 127.997
_cell_angle_gamma 89.983
_space_group_name_H-M_alt 'P 1'
_space_group_name_Hall 'P 1'
loop_
    _symmetry_equiv_pos_as_xyz
    x,y,z
loop_
    _atom_site_label
    _atom_site_type_symbol
    _atom_site_fract_x
    _atom_site_fract_y
    _atom_site_fract_z
    _atom_site_occupancy
    Zr0     Zr   0.99999   0.99995   0.30000   1.000
    Zr1     Zr   0.49997   0.49994   0.70000   1.000
    Zr2     Zr   0.03726   0.99357   0.38480   1.000
    Zr3     Zr   0.13907   0.96140   0.28107   1.000
    Zr4     Zr   0.91468   0.03689   0.27653   1.000
    Zr5     Zr   0.46265   0.49363   0.61522   1.000
    Zr6     Zr   0.36086   0.46148   0.71897   1.000
    Zr7     Zr   0.58515   0.53694   0.72349   1.000
    O8      O    0.95734   0.01842   0.28826   1.000
    O9      O    0.06953   0.98067   0.29054   1.000
    O10     O    0.01862   0.99676   0.34240   1.000
    O11     O    0.48131   0.49679   0.65761   1.000
    O12     O    0.43041   0.48071   0.70949   1.000
    O13     O    0.54256   0.51844   0.71175   1.000
    N14     N    0.49997   0.99995   0.00003   1.000
    N15     N    0.97949   0.00063   0.65751   1.000
    N16     N    0.99643   0.49995   0.00002   1.000
    N17     N    0.91639   0.03863   0.14933   1.000
    O18     O    0.91472   0.03858   0.18810   1.000
    O19     O    0.99816   0.01038   0.18943   1.000
    N20     N    0.52046   0.50104   0.34191   1.000
    N21     N    0.58345   0.53867   0.85068   1.000
    O22     O    0.50172   0.51044   0.81060   1.000
    O23     O    0.58511   0.53863   0.81191   1.000
    N24     N    0.29966   0.43872   0.57466   1.000
    O25     O    0.32720   0.44871   0.62088   1.000
    N26     N    0.20030   0.93863   0.42538   1.000
    O27     O    0.17274   0.94862   0.37916   1.000
    N28     N    0.27545   0.43127   0.72221   1.000
    O29     O    0.29681   0.43882   0.72140   1.000
    N30     N    0.22450   0.93118   0.27784   1.000
    O31     O    0.20314   0.93873   0.27865   1.000
    N32     N    0.82089   0.06765   0.26755   1.000
    O33     O    0.84434   0.05996   0.26980   1.000
    N34     N    0.67892   0.56770   0.73246   1.000
    O35     O    0.65548   0.56001   0.73022   1.000
loop_
    _geom_bond_atom_site_label_1
    _geom_bond_atom_site_label_2
    _geom_bond_distance
    _geom_bond_site_symmetry_2
    _ccdc_geom_bond_type
    Zr4    O8        0.47421      .   S
    Zr0    O8        0.47421  1_565   S
    Zr3    O9        0.93101      .   S
    Zr0    O9        0.93101  1_655   S
    Zr2    O10       0.49926      .   S
    Zr0    O10       0.49926  1_655   S
    Zr5    O11       0.49903      .   S
    Zr1    O11       0.49903      .   S
    Zr6    O12       0.93131      .   S
    Zr1    O12       0.93131      .   S
    Zr7    O13       0.47387      .   S
    Zr1    O13       0.47387      .   S
    N17    O18       0.56191      .   S
    Zr4    O18       1.25437      .   S
    N17    O19       0.82829      .   S
    Zr3    O19       1.45710  1_465   S
    N21    O22       0.82814      .   S
    Zr6    O22       1.45692      .   S
    N21    O23       0.56186      .   S
    Zr7    O23       1.25421      .   S
    N24    O25       0.53712      .   S
    Zr6    O25       1.20019      .   S
    N26    O27       0.53712      .   S
    Zr3    O27       1.20022      .   S
    N28    O29       0.27270      .   S
    Zr6    O29       0.81810      .   S
    N30    O31       0.27270      .   S
    Zr3    O31       0.81810      .   S
    N32    O33       0.27219      .   S
    Zr4    O33       0.81658      .   S
    N34    O35       0.27219      .   S
    Zr7    O35       0.81656      .   S
