# CIF file generated by openbabel 2.4.90, see http://openbabel.sf.net
data_I
_chemical_name_common ''
_cell_length_a 22.958
_cell_length_b 12.515
_cell_length_c 14.852
_cell_angle_alpha 90
_cell_angle_beta 90
_cell_angle_gamma 90
_space_group_name_H-M_alt 'P 1'
_space_group_name_Hall 'P 1'
loop_
    _symmetry_equiv_pos_as_xyz
    x,y,z
loop_
    _atom_site_label
    _atom_site_type_symbol
    _atom_site_fract_x
    _atom_site_fract_y
    _atom_site_fract_z
    _atom_site_occupancy
    N0      N    0.49999   0.00002   0.74997   1.000
    N1      N    0.99999   0.00001   0.24749   1.000
    N2      N    0.49999   0.00002   0.24999   1.000
    N3      N    0.99999   0.00002   0.74749   1.000
    N4      N    0.49999   0.50002   0.99998   1.000
    N5      N    0.49999   0.50002   0.49997   1.000
    N6      N    0.99999   0.50002   0.49997   1.000
    N7      N    0.99999   0.50002   0.99998   1.000
    Zr8     Zr   0.25000   0.00000   0.24999   1.000
    O9      O    0.31229   0.14028   0.32520   1.000
    O10     O    0.18769   0.14028   0.17477   1.000
    O11     O    0.31229   0.85973   0.17477   1.000
    O12     O    0.17559   0.00000   0.24935   1.000
    O13     O    0.32439   0.00000   0.24999   1.000
    O14     O    0.18769   0.85973   0.32520   1.000
    Zr15    Zr   0.74999   0.00000   0.74998   1.000
    O16     O    0.81229   0.85973   0.82520   1.000
    O17     O    0.68769   0.14028   0.82520   1.000
    O18     O    0.68769   0.85973   0.67476   1.000
    O19     O    0.82439   0.00001   0.74936   1.000
    O20     O    0.81229   0.14028   0.67476   1.000
    O21     O    0.67559   0.00000   0.74998   1.000
    Zr22    Zr   0.24999   0.00000   0.74998   1.000
    O23     O    0.18769   0.14028   0.82520   1.000
    O24     O    0.31229   0.85973   0.82520   1.000
    O25     O    0.17559   0.00001   0.74311   1.000
    O26     O    0.31229   0.14028   0.67476   1.000
    O27     O    0.18769   0.85973   0.67476   1.000
    O28     O    0.32439   0.00000   0.74998   1.000
    Zr29    Zr   0.74999   0.00000   0.24999   1.000
    O30     O    0.81229   0.85973   0.17477   1.000
    O31     O    0.67559   0.00000   0.24999   1.000
    O32     O    0.68769   0.85973   0.32520   1.000
    O33     O    0.68769   0.14028   0.17477   1.000
    O34     O    0.82439   0.00000   0.24937   1.000
    O35     O    0.81229   0.14028   0.32520   1.000
loop_
    _geom_bond_atom_site_label_1
    _geom_bond_atom_site_label_2
    _geom_bond_distance
    _geom_bond_site_symmetry_2
    _ccdc_geom_bond_type
    Zr8    O9        2.52496      .   S
    N5     O9        6.75092      .   S
    Zr8    O10       2.52505      .   S
    N7     O10       6.75117  1_656   S
    Zr8    O11       2.52490  1_545   S
    N4     O11       6.75088  1_556   S
    Zr8    O12       1.70813      .   S
    N1     O12       4.03161  1_655   S
    Zr8    O13       1.70804      .   S
    N2     O13       4.03134      .   S
    Zr8    O14       2.52489  1_545   S
    N6     O14       6.75086  1_655   S
    Zr15   O16       2.52493  1_545   S
    N7     O16       6.75098      .   S
    Zr15   O17       2.52501      .   S
    N4     O17       6.75104      .   S
    Zr15   O18       2.52492  1_545   S
    N5     O18       6.75092      .   S
    Zr15   O19       1.70813      .   S
    N3     O19       4.03160      .   S
    Zr15   O20       2.52506      .   S
    N6     O20       6.75119      .   S
    Zr15   O21       1.70805      .   S
    N0     O21       4.03135      .   S
    Zr22   O23       2.52504      .   S
    N7     O23       6.75114  1_655   S
    Zr22   O24       2.52490  1_545   S
    N4     O24       6.75088      .   S
    Zr22   O25       1.71114      .   S
    N3     O25       4.03203  1_655   S
    Zr22   O26       2.52503      .   S
    N5     O26       6.75109      .   S
    Zr22   O27       2.52495  1_545   S
    N6     O27       6.75102  1_655   S
    Zr22   O28       1.70805      .   S
    N0     O28       4.03135      .   S
    Zr29   O30       2.52493  1_545   S
    N7     O30       6.75097  1_556   S
    Zr29   O31       1.70805      .   S
    N2     O31       4.03136      .   S
    Zr29   O32       2.52486  1_545   S
    N5     O32       6.75076      .   S
    Zr29   O33       2.52502      .   S
    N4     O33       6.75108  1_556   S
    Zr29   O34       1.70812      .   S
    N1     O34       4.03159      .   S
    Zr29   O35       2.52499      .   S
    N6     O35       6.75102      .   S
