# CIF file generated by openbabel 2.4.90, see http://openbabel.sf.net
data_I
_chemical_name_common ''
_cell_length_a 22.958
_cell_length_b 12.515
_cell_length_c 14.852
_cell_angle_alpha 90
_cell_angle_beta 90
_cell_angle_gamma 90
_space_group_name_H-M_alt 'P 1'
_space_group_name_Hall 'P 1'
loop_
    _symmetry_equiv_pos_as_xyz
    x,y,z
loop_
    _atom_site_label
    _atom_site_type_symbol
    _atom_site_fract_x
    _atom_site_fract_y
    _atom_site_fract_z
    _atom_site_occupancy
    Zr0     Zr   0.24999   0.00000   0.74998   1.000
    Zr1     Zr   0.74999   0.00000   0.74998   1.000
    Zr2     Zr   0.25000   0.00000   0.24999   1.000
    Zr3     Zr   0.74999   0.00000   0.24999   1.000
    N4      N    0.49999   0.00002   0.74997   1.000
    O5      O    0.39879   0.00001   0.74998   1.000
    O6      O    0.60119   0.00001   0.74998   1.000
    N7      N    0.99999   0.00001   0.24749   1.000
    O8      O    0.10119   0.00001   0.24872   1.000
    O9      O    0.89879   0.00001   0.24874   1.000
    N10     N    0.49999   0.00002   0.24999   1.000
    O11     O    0.39879   0.00001   0.24999   1.000
    O12     O    0.60119   0.00001   0.24999   1.000
    N13     N    0.99999   0.00002   0.74749   1.000
    O14     O    0.10119   0.00001   0.73624   1.000
    O15     O    0.89879   0.00001   0.74873   1.000
    N16     N    0.49999   0.50002   0.99998   1.000
    O17     O    0.62539   0.28056   0.09956   1.000
    O18     O    0.37459   0.71946   0.09956   1.000
    O19     O    0.37459   0.71946   0.90041   1.000
    O20     O    0.62539   0.28056   0.90041   1.000
    N21     N    0.49999   0.50002   0.49997   1.000
    O22     O    0.37459   0.28056   0.40041   1.000
    O23     O    0.62539   0.71946   0.40041   1.000
    O24     O    0.37459   0.28056   0.59954   1.000
    O25     O    0.62539   0.71946   0.59954   1.000
    N26     N    0.99999   0.50002   0.49997   1.000
    O27     O    0.12539   0.71946   0.40041   1.000
    O28     O    0.87459   0.28056   0.40041   1.000
    O29     O    0.87459   0.28056   0.59954   1.000
    O30     O    0.12539   0.71946   0.59954   1.000
    N31     N    0.99999   0.50002   0.99998   1.000
    O32     O    0.12539   0.28056   0.09956   1.000
    O33     O    0.87459   0.71946   0.09956   1.000
    O34     O    0.87459   0.71946   0.90041   1.000
    O35     O    0.12539   0.28056   0.90041   1.000
loop_
    _geom_bond_atom_site_label_1
    _geom_bond_atom_site_label_2
    _geom_bond_distance
    _geom_bond_site_symmetry_2
    _ccdc_geom_bond_type
    N4     O5        2.32330      .   S
    Zr0    O5        3.41610      .   S
    N4     O6        2.32330      .   S
    Zr1    O6        3.41609      .   S
    N7     O8        2.32349  1_655   S
    Zr2    O8        3.41626      .   S
    N7     O9        2.32348      .   S
    Zr3    O9        3.41624      .   S
    N10    O11       2.32330      .   S
    Zr2    O11       3.41609      .   S
    N10    O12       2.32330      .   S
    Zr3    O12       3.41611      .   S
    N13    O14       2.32941  1_655   S
    Zr0    O14       3.42229      .   S
    N13    O15       2.32347      .   S
    Zr1    O15       3.41625      .   S
    N16    O17       4.24481  1_556   S
    Zr3    O17       5.05005      .   S
    N16    O18       4.24473  1_556   S
    Zr2    O18       5.04981  1_545   S
    N16    O19       4.24473      .   S
    Zr0    O19       5.04981  1_545   S
    N16    O20       4.24479      .   S
    Zr1    O20       5.05002      .   S
    N21    O22       4.24472      .   S
    Zr2    O22       5.04993      .   S
    N21    O23       4.24466      .   S
    Zr3    O23       5.04972  1_545   S
    N21    O24       4.24483      .   S
    Zr0    O24       5.05006      .   S
    N21    O25       4.24476      .   S
    Zr1    O25       5.04985  1_545   S
    N26    O27       4.24473  1_655   S
    Zr2    O27       5.04978  1_545   S
    N26    O28       4.24479      .   S
    Zr3    O28       5.04998      .   S
    N26    O29       4.24490      .   S
    Zr1    O29       5.05012      .   S
    N26    O30       4.24483  1_655   S
    Zr0    O30       5.04991  1_545   S
    N31    O32       4.24489  1_656   S
    Zr2    O32       5.05010      .   S
    N31    O33       4.24480  1_556   S
    Zr3    O33       5.04986  1_545   S
    N31    O34       4.24481      .   S
    Zr1    O34       5.04987  1_545   S
    N31    O35       4.24487  1_655   S
    Zr0    O35       5.05008      .   S
