# CIF file generated by openbabel 2.4.90, see http://openbabel.sf.net
data_I
_chemical_name_common ''
_cell_length_a 17.924
_cell_length_b 17.979
_cell_length_c 13.775
_cell_angle_alpha 73.331
_cell_angle_beta 71.911
_cell_angle_gamma 81.632
_space_group_name_H-M_alt 'P 1'
_space_group_name_Hall 'P 1'
loop_
    _symmetry_equiv_pos_as_xyz
    x,y,z
loop_
    _atom_site_label
    _atom_site_type_symbol
    _atom_site_fract_x
    _atom_site_fract_y
    _atom_site_fract_z
    _atom_site_occupancy
    C0      C    0.36162   0.05609   0.29438   1.000
    C1      C    0.36162   0.55609   0.29438   1.000
    C2      C    0.86161   0.05610   0.29438   1.000
    C3      C    0.86161   0.55608   0.29438   1.000
    C4      C    0.08494   0.07771   0.22800   1.000
    C5      C    0.08494   0.57769   0.22850   1.000
    C6      C    0.58493   0.07770   0.22850   1.000
    C7      C    0.58493   0.57770   0.22850   1.000
    C8      C    0.22262   0.21664   0.23445   1.000
    C9      C    0.22262   0.71663   0.23445   1.000
    C10     C    0.72261   0.21664   0.23445   1.000
    C11     C    0.72261   0.71663   0.23445   1.000
    C12     C    0.22070   0.41628   0.29066   1.000
    C13     C    0.22071   0.91627   0.29066   1.000
    C14     C    0.72071   0.41628   0.29066   1.000
    C15     C    0.72069   0.91627   0.29060   1.000
