# CIF file generated by openbabel 2.4.90, see http://openbabel.sf.net
data_I
_chemical_name_common ''
_cell_length_a 18.067
_cell_length_b 20.611
_cell_length_c 18.888
_cell_angle_alpha 89.978
_cell_angle_beta 89.993
_cell_angle_gamma 90.027
_space_group_name_H-M_alt 'P 1'
_space_group_name_Hall 'P 1'
loop_
    _symmetry_equiv_pos_as_xyz
    x,y,z
loop_
    _atom_site_label
    _atom_site_type_symbol
    _atom_site_fract_x
    _atom_site_fract_y
    _atom_site_fract_z
    _atom_site_occupancy
    Zr0     Zr   0.06549   0.01386   0.59845   1.000
    Zr1     Zr   0.06550   0.51387   0.59845   1.000
    Zr2     Zr   0.56550   0.01386   0.59845   1.000
    Zr3     Zr   0.56551   0.51387   0.59845   1.000
    Zr4     Zr   0.31549   0.48614   0.40148   1.000
    Zr5     Zr   0.31549   0.98615   0.40148   1.000
    Zr6     Zr   0.81550   0.48614   0.40148   1.000
    Zr7     Zr   0.81550   0.98615   0.40148   1.000
    Zr8     Zr   0.06545   0.23617   0.09852   1.000
    Zr9     Zr   0.06545   0.73618   0.09852   1.000
    Zr10    Zr   0.56546   0.23617   0.09852   1.000
    Zr11    Zr   0.56546   0.73618   0.09852   1.000
    Zr12    Zr   0.31546   0.26382   0.90148   1.000
    Zr13    Zr   0.31547   0.76383   0.90148   1.000
    Zr14    Zr   0.81547   0.26382   0.90148   1.000
    Zr15    Zr   0.81548   0.76383   0.90148   1.000
    N16     N    0.66104   0.59781   0.23153   1.000
    O17     O    0.62445   0.64954   0.18092   1.000
    O18     O    0.72662   0.55793   0.30017   1.000
    N19     N    0.91109   0.40222   0.76847   1.000
    O20     O    0.97665   0.44208   0.69980   1.000
    O21     O    0.87448   0.35048   0.81909   1.000
    N22     N    0.22505   0.84503   0.09204   1.000
    O23     O    0.25382   0.81081   0.01642   1.000
    O24     O    0.16781   0.80203   0.08544   1.000
    N25     N    0.72506   0.34502   0.09204   1.000
    O26     O    0.75383   0.31081   0.01642   1.000
    O27     O    0.66782   0.30202   0.08544   1.000
    N28     N    0.72506   0.84503   0.09204   1.000
    O29     O    0.66782   0.80203   0.08544   1.000
    O30     O    0.75383   0.81081   0.01642   1.000
    N31     N    0.16111   0.15221   0.73144   1.000
    O32     O    0.12451   0.10049   0.68082   1.000
    O33     O    0.22664   0.19207   0.80012   1.000
    N34     N    0.16111   0.65222   0.73143   1.000
    O35     O    0.12451   0.60050   0.68080   1.000
    O36     O    0.22664   0.69207   0.80012   1.000
    N37     N    0.66111   0.15221   0.73144   1.000
    O38     O    0.62452   0.10049   0.68082   1.000
    O39     O    0.72665   0.19207   0.80012   1.000
    N40     N    0.66112   0.65222   0.73144   1.000
    O41     O    0.62452   0.60050   0.68082   1.000
    O42     O    0.72665   0.69207   0.80012   1.000
    N43     N    0.91110   0.90222   0.76847   1.000
    O44     O    0.97665   0.94209   0.69979   1.000
    O45     O    0.87449   0.85049   0.81909   1.000
    N46     N    0.41109   0.40222   0.76848   1.000
    O47     O    0.47665   0.44209   0.69980   1.000
    O48     O    0.37448   0.35048   0.81910   1.000
    N49     N    0.41109   0.90222   0.76847   1.000
    O50     O    0.47665   0.94209   0.69977   1.000
    O51     O    0.37448   0.85049   0.81909   1.000
    N52     N    0.16103   0.09780   0.23152   1.000
    O53     O    0.22661   0.05793   0.30017   1.000
    O54     O    0.12443   0.14953   0.18089   1.000
    N55     N    0.47504   0.09503   0.40771   1.000
    O56     O    0.41785   0.05200   0.41440   1.000
    O57     O    0.50387   0.06082   0.48338   1.000
    N58     N    0.97504   0.59504   0.40771   1.000
    O59     O    0.91785   0.55200   0.41440   1.000
    O60     O    0.00387   0.56083   0.48338   1.000
    N61     N    0.16103   0.59781   0.23153   1.000
    O62     O    0.12444   0.64954   0.18092   1.000
    O63     O    0.22661   0.55793   0.30017   1.000
    N64     N    0.22505   0.34502   0.09204   1.000
    O65     O    0.25382   0.31081   0.01642   1.000
    O66     O    0.16781   0.30202   0.08544   1.000
    N67     N    0.47500   0.65501   0.90777   1.000
    O68     O    0.50378   0.68921   0.98348   1.000
    O69     O    0.41778   0.69800   0.91446   1.000
    N70     N    0.97500   0.15501   0.90776   1.000
    O71     O    0.00378   0.18920   0.98348   1.000
    O72     O    0.91779   0.19799   0.91446   1.000
    N73     N    0.22500   0.90498   0.59223   1.000
    O74     O    0.25384   0.93918   0.51656   1.000
    O75     O    0.16783   0.94801   0.58555   1.000
    N76     N    0.72501   0.90498   0.59223   1.000
    O77     O    0.75384   0.93918   0.51656   1.000
    O78     O    0.66783   0.94801   0.58555   1.000
    N79     N    0.66104   0.09780   0.23152   1.000
    O80     O    0.62444   0.14953   0.18089   1.000
    O81     O    0.72662   0.05793   0.30017   1.000
    N82     N    0.41113   0.34779   0.26854   1.000
    O83     O    0.37453   0.39951   0.31914   1.000
    O84     O    0.47666   0.30794   0.19986   1.000
    N85     N    0.41113   0.84780   0.26854   1.000
    O86     O    0.37453   0.89951   0.31914   1.000
    O87     O    0.47666   0.80794   0.19986   1.000
    N88     N    0.97504   0.09503   0.40770   1.000
    O89     O    0.00386   0.06082   0.48337   1.000
    O90     O    0.91785   0.05200   0.41439   1.000
    N91     N    0.22499   0.40497   0.59223   1.000
    O92     O    0.25383   0.43918   0.51656   1.000
    O93     O    0.16782   0.44801   0.58555   1.000
    N94     N    0.72500   0.40497   0.59223   1.000
    O95     O    0.75384   0.43918   0.51656   1.000
    O96     O    0.66783   0.44801   0.58555   1.000
    N97     N    0.47504   0.59504   0.40770   1.000
    O98     O    0.41785   0.55200   0.41439   1.000
    O99     O    0.50387   0.56083   0.48337   1.000
    N100    N    0.97500   0.65501   0.90777   1.000
    O101    O    0.00378   0.68921   0.98348   1.000
    O102    O    0.91779   0.69800   0.91446   1.000
    N103    N    0.47500   0.15501   0.90777   1.000
    O104    O    0.50378   0.18920   0.98348   1.000
    O105    O    0.41778   0.19799   0.91446   1.000
    N106    N    0.91114   0.34779   0.26851   1.000
    O107    O    0.87454   0.39951   0.31913   1.000
    O108    O    0.97666   0.30794   0.19985   1.000
    N109    N    0.91114   0.84780   0.26853   1.000
    O110    O    0.87454   0.89951   0.31914   1.000
    O111    O    0.97666   0.80794   0.19984   1.000
loop_
    _geom_bond_atom_site_label_1
    _geom_bond_atom_site_label_2
    _geom_bond_distance
    _geom_bond_site_symmetry_2
    _ccdc_geom_bond_type
    N16    O17       1.57730      .   S
    Zr11   O17       2.59751      .   S
    N16    O18       1.93927      .   S
    Zr6    O18       2.90347      .   S
    N19    O20       1.93864      .   S
    Zr1    O20       2.90257  1_455   S
    N19    O21       1.57707      .   S
    Zr14   O21       2.59699      .   S
    N22    O23       1.67592      .   S
    Zr13   O23       2.62549  1_556   S
    N22    O24       1.36738      .   S
    Zr9    O24       2.30653      .   S
    N25    O26       1.67579      .   S
    Zr14   O26       2.62560  1_556   S
    N25    O27       1.36739      .   S
    Zr10   O27       2.30653      .   S
    N28    O29       1.36739      .   S
    Zr11   O29       2.30654      .   S
    N28    O30       1.67592      .   S
    Zr15   O30       2.62549  1_556   S
    N31    O32       1.57723      .   S
    Zr0    O32       2.59737      .   S
    N31    O33       1.93908      .   S
    Zr12   O33       2.90319      .   S
    N34    O35       1.57734      .   S
    Zr1    O35       2.59721      .   S
    N34    O36       1.93910      .   S
    Zr13   O36       2.90323      .   S
    N37    O38       1.57726      .   S
    Zr2    O38       2.59737      .   S
    N37    O39       1.93907      .   S
    Zr14   O39       2.90316      .   S
    N40    O41       1.57726      .   S
    Zr3    O41       2.59739      .   S
    N40    O42       1.93906      .   S
    Zr15   O42       2.90316      .   S
    N43    O44       1.93858      .   S
    Zr0    O44       2.90239  1_445   S
    N43    O45       1.57710      .   S
    Zr15   O45       2.59700      .   S
    N46    O47       1.93874      .   S
    Zr3    O47       2.90265      .   S
    N46    O48       1.57707      .   S
    Zr12   O48       2.59698      .   S
    N49    O50       1.93893      .   S
    Zr2    O50       2.90219  1_545   S
    N49    O51       1.57710      .   S
    Zr13   O51       2.59702      .   S
    N52    O53       1.93932      .   S
    Zr5    O53       2.90341  1_565   S
    N52    O54       1.57753      .   S
    Zr8    O54       2.59719      .   S
    N55    O56       1.36724      .   S
    Zr5    O56       2.30629  1_565   S
    N55    O57       1.67651      .   S
    Zr2    O57       2.62703      .   S
    N58    O59       1.36723      .   S
    Zr6    O59       2.30641      .   S
    N58    O60       1.67646  1_655   S
    Zr1    O60       2.62697      .   S
    N61    O62       1.57731      .   S
    Zr9    O62       2.59750      .   S
    N61    O63       1.93929      .   S
    Zr4    O63       2.90347      .   S
    N64    O65       1.67592      .   S
    Zr12   O65       2.62549  1_556   S
    N64    O66       1.36739      .   S
    Zr8    O66       2.30653      .   S
    N67    O68       1.67716      .   S
    Zr11   O68       2.62702  1_554   S
    N67    O69       1.36762      .   S
    Zr13   O69       2.30657      .   S
    N70    O71       1.67719  1_655   S
    Zr8    O71       2.62704  1_554   S
    N70    O72       1.36757      .   S
    Zr14   O72       2.30651      .   S
    N73    O74       1.67634      .   S
    Zr5    O74       2.62670      .   S
    N73    O75       1.36757      .   S
    Zr0    O75       2.30693  1_545   S
    N76    O77       1.67634      .   S
    Zr7    O77       2.62670      .   S
    N76    O78       1.36757      .   S
    Zr2    O78       2.30693  1_545   S
    N79    O80       1.57751      .   S
    Zr10   O80       2.59717      .   S
    N79    O81       1.93934      .   S
    Zr7    O81       2.90344  1_565   S
    N82    O83       1.57744      .   S
    Zr4    O83       2.59779      .   S
    N82    O84       1.93916      .   S
    Zr10   O84       2.90329      .   S
    N85    O86       1.57743      .   S
    Zr5    O86       2.59778      .   S
    N85    O87       1.93918      .   S
    Zr11   O87       2.90330      .   S
    N88    O89       1.67654  1_655   S
    Zr0    O89       2.62704      .   S
    N88    O90       1.36719      .   S
    Zr7    O90       2.30623  1_565   S
    N91    O92       1.67634      .   S
    Zr4    O92       2.62669      .   S
    N91    O93       1.36760      .   S
    Zr1    O93       2.30701      .   S
    N94    O95       1.67634      .   S
    Zr6    O95       2.62669      .   S
    N94    O96       1.36760      .   S
    Zr3    O96       2.30701      .   S
    N97    O98       1.36730      .   S
    Zr4    O98       2.30646      .   S
    N97    O99       1.67656      .   S
    Zr3    O99       2.62708      .   S
    N100   O101      1.67717  1_655   S
    Zr9    O101      2.62703  1_554   S
    N100   O102      1.36757      .   S
    Zr15   O102      2.30651      .   S
    N103   O104      1.67720      .   S
    Zr10   O104      2.62706  1_554   S
    N103   O105      1.36762      .   S
    Zr12   O105      2.30657      .   S
    N106   O107      1.57755      .   S
    Zr6    O107      2.59797      .   S
    N106   O108      1.93892      .   S
    Zr8    O108      2.90302  1_455   S
    N109   O110      1.57750      .   S
    Zr7    O110      2.59786      .   S
    N109   O111      1.93914      .   S
    Zr9    O111      2.90297  1_455   S
