# CIF file generated by openbabel 2.4.90, see http://openbabel.sf.net
data_I
_chemical_name_common ''
_cell_length_a 18.067
_cell_length_b 20.611
_cell_length_c 18.888
_cell_angle_alpha 89.978
_cell_angle_beta 89.993
_cell_angle_gamma 90.027
_space_group_name_H-M_alt 'P 1'
_space_group_name_Hall 'P 1'
loop_
    _symmetry_equiv_pos_as_xyz
    x,y,z
loop_
    _atom_site_label
    _atom_site_type_symbol
    _atom_site_fract_x
    _atom_site_fract_y
    _atom_site_fract_z
    _atom_site_occupancy
    N0      N    0.66104   0.59781   0.23153   1.000
    N1      N    0.91109   0.40222   0.76847   1.000
    N2      N    0.22505   0.84503   0.09204   1.000
    N3      N    0.72506   0.34502   0.09204   1.000
    N4      N    0.72506   0.84503   0.09204   1.000
    N5      N    0.16111   0.15221   0.73144   1.000
    N6      N    0.16111   0.65222   0.73143   1.000
    N7      N    0.66111   0.15221   0.73144   1.000
    N8      N    0.66112   0.65222   0.73144   1.000
    N9      N    0.91110   0.90222   0.76847   1.000
    N10     N    0.41109   0.40222   0.76848   1.000
    N11     N    0.41109   0.90222   0.76847   1.000
    N12     N    0.16103   0.09780   0.23152   1.000
    N13     N    0.47504   0.09503   0.40771   1.000
    N14     N    0.97504   0.59504   0.40771   1.000
    N15     N    0.16103   0.59781   0.23153   1.000
    N16     N    0.22505   0.34502   0.09204   1.000
    N17     N    0.47500   0.65501   0.90777   1.000
    N18     N    0.97500   0.15501   0.90776   1.000
    N19     N    0.22500   0.90498   0.59223   1.000
    N20     N    0.72501   0.90498   0.59223   1.000
    N21     N    0.66104   0.09780   0.23152   1.000
    N22     N    0.41113   0.34779   0.26854   1.000
    N23     N    0.41113   0.84780   0.26854   1.000
    N24     N    0.97504   0.09503   0.40770   1.000
    N25     N    0.22499   0.40497   0.59223   1.000
    N26     N    0.72500   0.40497   0.59223   1.000
    N27     N    0.47504   0.59504   0.40770   1.000
    N28     N    0.97500   0.65501   0.90777   1.000
    N29     N    0.47500   0.15501   0.90777   1.000
    N30     N    0.91114   0.34779   0.26851   1.000
    N31     N    0.91114   0.84780   0.26853   1.000
    Zr32    Zr   0.81547   0.26382   0.90148   1.000
    O33     O    0.84498   0.30715   0.86029   1.000
    O34     O    0.78465   0.28731   0.95895   1.000
    O35     O    0.86663   0.23090   0.90797   1.000
    O36     O    0.77106   0.22794   0.85080   1.000
    Zr37    Zr   0.06549   0.01386   0.59845   1.000
    O38     O    0.11666   0.98093   0.59200   1.000
    O39     O    0.09500   0.05718   0.63963   1.000
    O40     O    0.03468   0.03734   0.54091   1.000
    O41     O    0.02107   0.97797   0.64912   1.000
    Zr42    Zr   0.06550   0.51387   0.59845   1.000
    O43     O    0.09501   0.55718   0.63963   1.000
    O44     O    0.03468   0.53735   0.54091   1.000
    O45     O    0.11666   0.48094   0.59200   1.000
    O46     O    0.02107   0.47798   0.64912   1.000
    Zr47    Zr   0.56550   0.01386   0.59845   1.000
    O48     O    0.61667   0.98093   0.59200   1.000
    O49     O    0.53469   0.03734   0.54091   1.000
    O50     O    0.52108   0.97797   0.64911   1.000
    O51     O    0.59501   0.05717   0.63963   1.000
    Zr52    Zr   0.81548   0.76383   0.90148   1.000
    O53     O    0.77106   0.72795   0.85080   1.000
    O54     O    0.84498   0.80716   0.86029   1.000
    O55     O    0.86663   0.73091   0.90797   1.000
    O56     O    0.78465   0.78732   0.95895   1.000
    Zr57    Zr   0.56546   0.73618   0.09852   1.000
    O58     O    0.53462   0.71270   0.04100   1.000
    O59     O    0.52106   0.77206   0.14919   1.000
    O60     O    0.59495   0.69286   0.13972   1.000
    O61     O    0.61664   0.76910   0.09198   1.000
    Zr62    Zr   0.06545   0.73618   0.09852   1.000
    O63     O    0.09494   0.69286   0.13972   1.000
    O64     O    0.02105   0.77206   0.14918   1.000
    O65     O    0.03461   0.71270   0.04100   1.000
    O66     O    0.11663   0.76910   0.09198   1.000
    Zr67    Zr   0.31547   0.76383   0.90148   1.000
    O68     O    0.34497   0.80716   0.86029   1.000
    O69     O    0.36663   0.73091   0.90797   1.000
    O70     O    0.27105   0.72795   0.85080   1.000
    O71     O    0.28464   0.78732   0.95895   1.000
    Zr72    Zr   0.06545   0.23617   0.09852   1.000
    O73     O    0.11663   0.26910   0.09198   1.000
    O74     O    0.02105   0.27206   0.14918   1.000
    O75     O    0.09494   0.19285   0.13971   1.000
    O76     O    0.03461   0.21269   0.04100   1.000
    Zr77    Zr   0.56551   0.51387   0.59845   1.000
    O78     O    0.61667   0.48094   0.59200   1.000
    O79     O    0.53469   0.53735   0.54091   1.000
    O80     O    0.59501   0.55718   0.63963   1.000
    O81     O    0.52108   0.47798   0.64912   1.000
    Zr82    Zr   0.81550   0.98615   0.40148   1.000
    O83     O    0.77106   0.02204   0.35082   1.000
    O84     O    0.84502   0.94283   0.36031   1.000
    O85     O    0.86668   0.01908   0.40794   1.000
    O86     O    0.78467   0.96267   0.45902   1.000
    Zr87    Zr   0.31549   0.48614   0.40148   1.000
    O88     O    0.28466   0.46266   0.45902   1.000
    O89     O    0.36667   0.51907   0.40794   1.000
    O90     O    0.27105   0.52204   0.35083   1.000
    O91     O    0.34501   0.44282   0.36031   1.000
    Zr92    Zr   0.31549   0.98615   0.40148   1.000
    O93     O    0.27105   0.02204   0.35083   1.000
    O94     O    0.28466   0.96267   0.45902   1.000
    O95     O    0.36667   0.01908   0.40794   1.000
    O96     O    0.34501   0.94283   0.36031   1.000
    Zr97    Zr   0.31546   0.26382   0.90148   1.000
    O98     O    0.27105   0.22794   0.85080   1.000
    O99     O    0.36662   0.23091   0.90797   1.000
    O100    O    0.34497   0.30715   0.86029   1.000
    O101    O    0.28464   0.28731   0.95895   1.000
    Zr102   Zr   0.81550   0.48614   0.40148   1.000
    O103    O    0.84502   0.44282   0.36030   1.000
    O104    O    0.86668   0.51907   0.40794   1.000
    O105    O    0.78467   0.46266   0.45902   1.000
    O106    O    0.77106   0.52204   0.35083   1.000
    Zr107   Zr   0.56546   0.23617   0.09852   1.000
    O108    O    0.61664   0.26910   0.09198   1.000
    O109    O    0.59495   0.19285   0.13970   1.000
    O110    O    0.53462   0.21269   0.04100   1.000
    O111    O    0.52106   0.27206   0.14919   1.000
loop_
    _geom_bond_atom_site_label_1
    _geom_bond_atom_site_label_2
    _geom_bond_distance
    _geom_bond_site_symmetry_2
    _ccdc_geom_bond_type
    Zr32   O33       1.29849      .   S
    N1     O33       2.87547      .   S
    Zr32   O34       1.31280      .   S
    N3     O34       2.98257  1_554   S
    Zr32   O35       1.15326      .   S
    N18    O35       2.50666      .   S
    Zr32   O36       1.45158      .   S
    N7     O36       3.38617      .   S
    Zr37   O38       1.15346  1_545   S
    N19    O38       2.50695      .   S
    Zr37   O39       1.29869      .   S
    N5     O39       2.87582      .   S
    Zr37   O40       1.31352      .   S
    N24    O40       2.98410  1_655   S
    Zr37   O41       1.45119  1_545   S
    N9     O41       3.38529  1_655   S
    Zr42   O43       1.29860      .   S
    N6     O43       2.87585      .   S
    Zr42   O44       1.31349      .   S
    N14    O44       2.98400  1_655   S
    Zr42   O45       1.15350      .   S
    N25    O45       2.50702      .   S
    Zr42   O46       1.45128      .   S
    N1     O46       3.38543  1_655   S
    Zr47   O48       1.15346  1_545   S
    N20    O48       2.50695      .   S
    Zr47   O49       1.31351      .   S
    N13    O49       2.98408      .   S
    Zr47   O50       1.45110  1_545   S
    N11    O50       3.38554      .   S
    Zr47   O51       1.29868      .   S
    N7     O51       2.87585      .   S
    Zr52   O53       1.45158      .   S
    N8     O53       3.38616      .   S
    Zr52   O54       1.29850      .   S
    N9     O54       2.87550      .   S
    Zr52   O55       1.15326      .   S
    N28    O55       2.50667      .   S
    Zr52   O56       1.31274      .   S
    N4     O56       2.98265  1_554   S
    Zr57   O58       1.31351      .   S
    N17    O58       2.98465  1_556   S
    Zr57   O59       1.45165      .   S
    N23    O59       3.38634      .   S
    Zr57   O60       1.29875      .   S
    N0     O60       2.87596      .   S
    Zr57   O61       1.15327      .   S
    N4     O61       2.50656      .   S
    Zr62   O63       1.29875      .   S
    N15    O63       2.87596      .   S
    Zr62   O64       1.45149      .   S
    N31    O64       3.38614  1_655   S
    Zr62   O65       1.31351      .   S
    N28    O65       2.98466  1_656   S
    Zr62   O66       1.15326      .   S
    N2     O66       2.50655      .   S
    Zr67   O68       1.29851      .   S
    N11    O68       2.87552      .   S
    Zr67   O69       1.15329      .   S
    N17    O69       2.50675      .   S
    Zr67   O70       1.45161      .   S
    N6     O70       3.38623      .   S
    Zr67   O71       1.31274      .   S
    N2     O71       2.98265  1_554   S
    Zr72   O73       1.15327      .   S
    N16    O73       2.50655      .   S
    Zr72   O74       1.45151      .   S
    N30    O74       3.38594  1_655   S
    Zr72   O75       1.29860      .   S
    N12    O75       2.87603      .   S
    Zr72   O76       1.31352      .   S
    N18    O76       2.98468  1_656   S
    Zr77   O78       1.15350      .   S
    N26    O78       2.50702      .   S
    Zr77   O79       1.31354      .   S
    N27    O79       2.98415      .   S
    Zr77   O80       1.29869      .   S
    N8     O80       2.87586      .   S
    Zr77   O81       1.45132      .   S
    N10    O81       3.38558      .   S
    Zr82   O83       1.45172  1_565   S
    N21    O83       3.38658      .   S
    Zr82   O84       1.29893      .   S
    N31    O84       2.87634      .   S
    Zr82   O85       1.15311  1_565   S
    N24    O85       2.50618      .   S
    Zr82   O86       1.31335      .   S
    N20    O86       2.98373      .   S
    Zr87   O88       1.31335      .   S
    N25    O88       2.98372      .   S
    Zr87   O89       1.15323      .   S
    N27    O89       2.50641      .   S
    Zr87   O90       1.45173      .   S
    N15    O90       3.38654      .   S
    Zr87   O91       1.29889      .   S
    N22    O91       2.87624      .   S
    Zr92   O93       1.45170  1_565   S
    N12    O93       3.38654      .   S
    Zr92   O94       1.31335      .   S
    N19    O94       2.98373      .   S
    Zr92   O95       1.15314  1_565   S
    N13    O95       2.50626      .   S
    Zr92   O96       1.29889      .   S
    N23    O96       2.87622      .   S
    Zr97   O98       1.45159      .   S
    N5     O98       3.38620      .   S
    Zr97   O99       1.15329      .   S
    N29    O99       2.50675      .   S
    Zr97   O100      1.29849      .   S
    N10    O100      2.87546      .   S
    Zr97   O101      1.31274      .   S
    N16    O101      2.98264  1_554   S
    Zr102  O103      1.29898      .   S
    N30    O103      2.87644      .   S
    Zr102  O104      1.15320      .   S
    N14    O104      2.50633      .   S
    Zr102  O105      1.31335      .   S
    N26    O105      2.98372      .   S
    Zr102  O106      1.45173      .   S
    N0     O106      3.38653      .   S
    Zr107  O108      1.15327      .   S
    N3     O108      2.50656      .   S
    Zr107  O109      1.29859      .   S
    N21    O109      2.87600      .   S
    Zr107  O110      1.31353      .   S
    N29    O110      2.98470  1_556   S
    Zr107  O111      1.45164      .   S
    N22    O111      3.38632      .   S
