# CIF file generated by openbabel 2.4.90, see http://openbabel.sf.net
data_I
_chemical_name_common ''
_cell_length_a 22.412
_cell_length_b 17.845
_cell_length_c 17.876
_cell_angle_alpha 79.011
_cell_angle_beta 71.829
_cell_angle_gamma 71.745
_space_group_name_H-M_alt 'P 1'
_space_group_name_Hall 'P 1'
loop_
    _symmetry_equiv_pos_as_xyz
    x,y,z
loop_
    _atom_site_label
    _atom_site_type_symbol
    _atom_site_fract_x
    _atom_site_fract_y
    _atom_site_fract_z
    _atom_site_occupancy
    H0      H    0.37179   0.10606   0.16283   1.000
    H1      H    0.87177   0.10606   0.16283   1.000
    H2      H    0.34487   0.13876   0.01650   1.000
    H3      H    0.84486   0.13877   0.01650   1.000
    H4      H    0.43485   0.34334   0.76690   1.000
    H5      H    0.93483   0.34335   0.76689   1.000
    H6      H    0.44088   0.54958   0.82820   1.000
    H7      H    0.94086   0.54959   0.82819   1.000
    H8      H    0.32572   0.50275   0.88128   1.000
    H9      H    0.82571   0.50276   0.88127   1.000
    H10     H    0.49248   0.16213   0.10655   1.000
    H11     H    0.99246   0.16212   0.10650   1.000
    H12     H    0.07646   0.01585   0.13930   1.000
    H13     H    0.57646   0.01586   0.13930   1.000
    H14     H    0.01048   0.76559   0.34266   1.000
    H15     H    0.51045   0.76560   0.34265   1.000
    H16     H    0.37041   0.82776   0.54959   1.000
    H17     H    0.87039   0.82777   0.54959   1.000
    H18     H    0.48254   0.88064   0.50264   1.000
    H19     H    0.98252   0.88064   0.50264   1.000
    H20     H    0.37740   0.33795   0.39351   1.000
    H21     H    0.87738   0.33795   0.39351   1.000
    H22     H    0.40519   0.48396   0.36061   1.000
    H23     H    0.90516   0.48395   0.36061   1.000
    H24     H    0.31497   0.73418   0.15696   1.000
    H25     H    0.81496   0.73418   0.15696   1.000
    H26     H    0.30888   0.67252   0.95059   1.000
    H27     H    0.80887   0.67253   0.95059   1.000
    H28     H    0.42407   0.61942   0.99747   1.000
    H29     H    0.92406   0.61942   0.99747   1.000
    H30     H    0.25670   0.39385   0.33737   1.000
    H31     H    0.75668   0.39384   0.33736   1.000
    H32     H    0.17285   0.36122   0.48336   1.000
    H33     H    0.67282   0.36122   0.48335   1.000
    H34     H    0.24002   0.15711   0.73325   1.000
    H35     H    0.74000   0.15712   0.73324   1.000
    H36     H    0.37974   0.95032   0.67215   1.000
    H37     H    0.87972   0.95032   0.67216   1.000
    H38     H    0.26761   0.99718   0.61913   1.000
    H39     H    0.76760   0.99718   0.61914   1.000
    H40     H    0.12819   0.89391   0.83717   1.000
    H41     H    0.62817   0.89392   0.83717   1.000
    H42     H    0.15511   0.86121   0.98350   1.000
    H43     H    0.65509   0.86122   0.98350   1.000
    H44     H    0.06514   0.65663   0.23312   1.000
    H45     H    0.56512   0.65664   0.23311   1.000
    H46     H    0.05910   0.45039   0.17182   1.000
    H47     H    0.55908   0.45040   0.17180   1.000
    H48     H    0.17426   0.49722   0.11870   1.000
    H49     H    0.67425   0.49722   0.11871   1.000
    H50     H    0.00751   0.83786   0.89345   1.000
    H51     H    0.50749   0.83785   0.89345   1.000
    H52     H    0.42351   0.98412   0.86069   1.000
    H53     H    0.92350   0.98412   0.86060   1.000
    H54     H    0.48952   0.23438   0.65736   1.000
    H55     H    0.98950   0.23438   0.65736   1.000
    H56     H    0.12957   0.17222   0.45041   1.000
    H57     H    0.62955   0.17223   0.45041   1.000
    H58     H    0.01743   0.11935   0.49736   1.000
    H59     H    0.51742   0.11935   0.49736   1.000
    H60     H    0.12259   0.66203   0.60649   1.000
    H61     H    0.62257   0.66203   0.60649   1.000
    H62     H    0.09481   0.51602   0.63939   1.000
    H63     H    0.59479   0.51602   0.63939   1.000
    H64     H    0.18500   0.26580   0.84305   1.000
    H65     H    0.68499   0.26580   0.84304   1.000
    H66     H    0.19109   0.32746   0.04942   1.000
    H67     H    0.69108   0.32746   0.04942   1.000
    H68     H    0.07591   0.38056   0.00254   1.000
    H69     H    0.57589   0.38057   0.00254   1.000
    H70     H    0.24330   0.60613   0.66264   1.000
    H71     H    0.74328   0.60612   0.66264   1.000
    H72     H    0.32715   0.63876   0.51665   1.000
    H73     H    0.82713   0.63875   0.51665   1.000
    H74     H    0.25996   0.84287   0.26676   1.000
    H75     H    0.75994   0.84287   0.26676   1.000
    H76     H    0.12024   0.04966   0.32783   1.000
    H77     H    0.62023   0.04966   0.32784   1.000
    H78     H    0.23237   0.00280   0.38086   1.000
    H79     H    0.73236   0.00280   0.38087   1.000
    C80     C    0.74790   0.66281   0.62996   1.000
    C81     C    0.28996   0.67911   0.55666   1.000
    C82     C    0.78994   0.67910   0.55666   1.000
    C83     C    0.23003   0.78895   0.60251   1.000
    C84     C    0.35525   0.16276   0.13010   1.000
    C85     C    0.85523   0.16277   0.13010   1.000
    C86     C    0.34186   0.17909   0.05664   1.000
    C87     C    0.84184   0.17910   0.05663   1.000
    C88     C    0.32400   0.28890   0.10265   1.000
    C89     C    0.82398   0.28891   0.10266   1.000
    C90     C    0.42487   0.28733   0.76800   1.000
    C91     C    0.92485   0.28734   0.76859   1.000
    C92     C    0.45470   0.37015   0.90249   1.000
    C93     C    0.95468   0.37016   0.90249   1.000
    C94     C    0.43260   0.49283   0.85589   1.000
    C95     C    0.93259   0.49284   0.85588   1.000
    C96     C    0.37526   0.46938   0.88154   1.000
    C97     C    0.87525   0.46939   0.88153   1.000
    C98     C    0.49729   0.12956   0.16315   1.000
    C99     C    0.99727   0.12955   0.16315   1.000
    C100    C    0.03939   0.05609   0.17952   1.000
    C101    C    0.53938   0.05609   0.17952   1.000
    C102    C    0.47977   0.10242   0.28903   1.000
    C103    C    0.97976   0.10242   0.28903   1.000
    C104    C    0.04747   0.76772   0.28682   1.000
    C105    C    0.54746   0.76773   0.28682   1.000
    C106    C    0.40896   0.90169   0.37038   1.000
    C107    C    0.90895   0.90168   0.37038   1.000
    C108    C    0.39316   0.85535   0.49289   1.000
    C109    C    0.89314   0.85535   0.49200   1.000
    C110    C    0.44946   0.88088   0.46937   1.000
    C111    C    0.94945   0.88088   0.46937   1.000
    N112    N    0.36025   0.59013   0.10884   1.000
    N113    N    0.86024   0.59012   0.10884   1.000
    N114    N    0.26703   0.63119   0.07018   1.000
    N115    N    0.76702   0.63120   0.07018   1.000
    N116    N    0.25972   0.57203   0.20624   1.000
    C117    C    0.39413   0.37048   0.33688   1.000
    C118    C    0.89411   0.37048   0.33688   1.000
    C119    C    0.40795   0.44381   0.32040   1.000
    C120    C    0.90793   0.44381   0.32045   1.000
    C121    C    0.42554   0.39760   0.21099   1.000
    C122    C    0.92552   0.39760   0.21000   1.000
    C123    C    0.32500   0.73203   0.21295   1.000
    C124    C    0.82499   0.73203   0.21295   1.000
    C125    C    0.29525   0.59800   0.12964   1.000
    C126    C    0.79523   0.59801   0.12964   1.000
    C127    C    0.31722   0.64474   0.00724   1.000
    C128    C    0.81720   0.64475   0.00724   1.000
    C129    C    0.37458   0.61909   0.03072   1.000
    C130    C    0.87456   0.61909   0.03072   1.000
    C131    C    0.25207   0.33716   0.37004   1.000
    C132    C    0.75206   0.33715   0.37004   1.000
    C133    C    0.21003   0.32087   0.44334   1.000
    C134    C    0.71001   0.32087   0.44334   1.000
    C135    C    0.26995   0.21103   0.39749   1.000
    C136    C    0.76994   0.21102   0.39749   1.000
    C137    C    0.20281   0.21300   0.73151   1.000
    C138    C    0.70279   0.21299   0.73152   1.000
    C139    C    0.34111   0.12971   0.59773   1.000
    C140    C    0.84110   0.12971   0.59773   1.000
    C141    C    0.35696   0.00707   0.64443   1.000
    C142    C    0.85695   0.00707   0.64443   1.000
    C143    C    0.30066   0.03055   0.61880   1.000
    C144    C    0.80065   0.03054   0.61882   1.000
    C145    C    0.14473   0.83721   0.86989   1.000
    C146    C    0.64472   0.83722   0.86988   1.000
    C147    C    0.15812   0.82088   0.94337   1.000
    C148    C    0.65811   0.82089   0.94336   1.000
    C149    C    0.17599   0.71107   0.89735   1.000
    C150    C    0.67598   0.71108   0.89734   1.000
    C151    C    0.07512   0.71264   0.23142   1.000
    C152    C    0.57510   0.71265   0.23141   1.000
    C153    C    0.04528   0.62983   0.09750   1.000
    C154    C    0.54527   0.62984   0.09752   1.000
    C155    C    0.06737   0.50714   0.14413   1.000
    C156    C    0.56736   0.50715   0.14413   1.000
    C157    C    0.12471   0.53060   0.11847   1.000
    C158    C    0.62471   0.53060   0.11846   1.000
    C159    C    0.00269   0.87043   0.83685   1.000
    C160    C    0.50268   0.87042   0.83685   1.000
    C161    C    0.46058   0.94389   0.82048   1.000
    C162    C    0.96058   0.94389   0.82048   1.000
    C163    C    0.02021   0.89756   0.71097   1.000
    C164    C    0.52020   0.89756   0.71097   1.000
    C165    C    0.45251   0.23224   0.71319   1.000
    C166    C    0.95249   0.23225   0.71318   1.000
    C167    C    0.09102   0.09830   0.62962   1.000
    C168    C    0.59101   0.09830   0.62962   1.000
    C169    C    0.10682   0.14464   0.50711   1.000
    C170    C    0.60680   0.14464   0.50711   1.000
    C171    C    0.05051   0.11911   0.53063   1.000
    C172    C    0.55050   0.11911   0.53063   1.000
    C173    C    0.10586   0.62950   0.66312   1.000
    C174    C    0.60583   0.62951   0.66312   1.000
    C175    C    0.09204   0.55617   0.67956   1.000
    C176    C    0.59201   0.55617   0.67956   1.000
    C177    C    0.07444   0.60238   0.78901   1.000
    C178    C    0.57442   0.60238   0.78901   1.000
    C179    C    0.17497   0.26795   0.78706   1.000
    C180    C    0.67495   0.26794   0.78706   1.000
    C181    C    0.20473   0.40196   0.87036   1.000
    C182    C    0.70472   0.40197   0.87030   1.000
    C183    C    0.18276   0.35524   0.99277   1.000
    C184    C    0.68275   0.35525   0.99277   1.000
    C185    C    0.12540   0.38090   0.96929   1.000
    C186    C    0.62539   0.38090   0.96929   1.000
    C187    C    0.24792   0.66282   0.62996   1.000
    O188    O    0.83594   0.08808   0.82280   1.000
    O189    O    0.15365   0.07479   0.71560   1.000
    O190    O    0.65364   0.07477   0.71568   1.000
    O191    O    0.05430   0.67537   0.89107   1.000
    O192    O    0.55429   0.67537   0.89100   1.000
    O193    O    0.03056   0.56001   0.91826   1.000
    O194    O    0.53054   0.56002   0.91826   1.000
    O195    O    0.21101   0.45187   0.74088   1.000
    C196    C    0.73001   0.78895   0.60251   1.000
    C197    C    0.29716   0.78699   0.26849   1.000
    C198    C    0.79715   0.78698   0.26849   1.000
    C199    C    0.15887   0.87027   0.40227   1.000
    C200    C    0.65885   0.87027   0.40228   1.000
    C201    C    0.14301   0.99292   0.35557   1.000
    C202    C    0.64300   0.99292   0.35558   1.000
    C203    C    0.19931   0.96944   0.38110   1.000
    C204    C    0.69930   0.96944   0.38119   1.000
    C205    C    0.37902   0.19252   0.80737   1.000
    C206    C    0.87901   0.19253   0.80737   1.000
    C207    C    0.12096   0.80745   0.19260   1.000
    C208    C    0.62094   0.80746   0.19263   1.000
    C209    C    0.37106   0.69243   0.30750   1.000
    C210    C    0.87104   0.69243   0.30750   1.000
    C211    C    0.12892   0.30756   0.69250   1.000
    C212    C    0.62889   0.30754   0.69252   1.000
    N213    N    0.34416   0.23299   0.15868   1.000
    N214    N    0.84414   0.23299   0.15868   1.000
    N215    N    0.32219   0.25939   0.03920   1.000
    N216    N    0.82218   0.25940   0.03922   1.000
    N217    N    0.30174   0.37093   0.11285   1.000
    N218    N    0.80172   0.37093   0.11285   1.000
    N219    N    0.37841   0.26166   0.82869   1.000
    N220    N    0.87839   0.26167   0.82869   1.000
    N221    N    0.38967   0.39108   0.91040   1.000
    N222    N    0.88965   0.39109   0.91042   1.000
    N223    N    0.48286   0.42969   0.86934   1.000
    N224    N    0.98285   0.42969   0.86934   1.000
    N225    N    0.49029   0.29338   0.92845   1.000
    N226    N    0.99028   0.29339   0.92844   1.000
    N227    N    0.45926   0.15832   0.23319   1.000
    N228    N    0.95925   0.15831   0.23319   1.000
    N229    N    0.02798   0.03889   0.25964   1.000
    N230    N    0.52798   0.03890   0.25964   1.000
    N231    N    0.45633   0.11288   0.37081   1.000
    N232    N    0.95631   0.11288   0.37081   1.000
    N233    N    0.07647   0.82820   0.26176   1.000
    N234    N    0.57646   0.82821   0.26176   1.000
    N235    N    0.45968   0.90959   0.39118   1.000
    N236    N    0.95967   0.90958   0.39118   1.000
    N237    N    0.36760   0.86873   0.42991   1.000
    N238    N    0.86759   0.86873   0.42991   1.000
    N239    N    0.39873   0.92733   0.29369   1.000
    N240    N    0.89872   0.92732   0.29369   1.000
    N241    N    0.40507   0.34178   0.26688   1.000
    N242    N    0.90505   0.34178   0.26687   1.000
    N243    N    0.42773   0.46100   0.24031   1.000
    N244    N    0.92772   0.46100   0.24031   1.000
    N245    N    0.44775   0.38715   0.12921   1.000
    N246    N    0.94773   0.38716   0.12920   1.000
    N247    N    0.37173   0.67172   0.23815   1.000
    N248    N    0.87172   0.67172   0.23815   1.000
    N249    N    0.75970   0.57204   0.20623   1.000
    N250    N    0.29030   0.26691   0.34158   1.000
    N251    N    0.79028   0.26691   0.34150   1.000
    N252    N    0.22167   0.24059   0.46074   1.000
    N253    N    0.72165   0.24058   0.46074   1.000
    N254    N    0.29359   0.12902   0.38730   1.000
    N255    N    0.79356   0.12901   0.38730   1.000
    N256    N    0.17369   0.23859   0.67119   1.000
    N257    N    0.67367   0.23858   0.67120   1.000
    N258    N    0.29042   0.10883   0.58986   1.000
    N259    N    0.79041   0.10883   0.58986   1.000
    N260    N    0.38248   0.07017   0.63087   1.000
    N261    N    0.88247   0.07017   0.63087   1.000
    N262    N    0.35134   0.20646   0.57181   1.000
    N263    N    0.85132   0.20647   0.57182   1.000
    N264    N    0.15583   0.76699   0.84132   1.000
    N265    N    0.65581   0.76699   0.84132   1.000
    N266    N    0.17779   0.74058   0.96078   1.000
    N267    N    0.67778   0.74059   0.96078   1.000
    N268    N    0.19826   0.62905   0.88715   1.000
    N269    N    0.69823   0.62905   0.88716   1.000
    N270    N    0.12157   0.73831   0.17132   1.000
    N271    N    0.62155   0.73832   0.17131   1.000
    N272    N    0.11031   0.60889   0.08959   1.000
    N273    N    0.61030   0.60890   0.08950   1.000
    N274    N    0.01712   0.57029   0.13067   1.000
    N275    N    0.51711   0.57029   0.13066   1.000
    N276    N    0.00969   0.70659   0.07155   1.000
    N277    N    0.50969   0.70659   0.07154   1.000
    N278    N    0.04072   0.84167   0.76681   1.000
    N279    N    0.54071   0.84166   0.76681   1.000
    N280    N    0.47199   0.96108   0.74036   1.000
    N281    N    0.97199   0.96109   0.74036   1.000
    N282    N    0.04366   0.88711   0.62919   1.000
    N283    N    0.54364   0.88711   0.62919   1.000
    N284    N    0.42351   0.17177   0.73824   1.000
    N285    N    0.92349   0.17178   0.73824   1.000
    N286    N    0.04030   0.09040   0.60882   1.000
    N287    N    0.54029   0.09039   0.60882   1.000
    N288    N    0.13238   0.13126   0.57009   1.000
    N289    N    0.63236   0.13125   0.57009   1.000
    N290    N    0.10125   0.07265   0.70630   1.000
    N291    N    0.60125   0.07263   0.70630   1.000
    N292    N    0.09491   0.65820   0.73310   1.000
    N293    N    0.59490   0.65820   0.73312   1.000
    N294    N    0.07226   0.53898   0.75969   1.000
    N295    N    0.57224   0.53897   0.75969   1.000
    N296    N    0.05224   0.61282   0.87080   1.000
    N297    N    0.55224   0.61281   0.87000   1.000
    N298    N    0.12824   0.32826   0.76180   1.000
    N299    N    0.62822   0.32826   0.76186   1.000
    N300    N    0.13973   0.40985   0.89116   1.000
    N301    N    0.63971   0.40986   0.89117   1.000
    N302    N    0.23295   0.36878   0.92982   1.000
    N303    N    0.73293   0.36879   0.92983   1.000
    N304    N    0.24027   0.42792   0.79376   1.000
    N305    N    0.74025   0.42793   0.79377   1.000
    N306    N    0.20969   0.73307   0.65842   1.000
    N307    N    0.70967   0.73306   0.65842   1.000
    N308    N    0.27832   0.75940   0.53926   1.000
    N309    N    0.77830   0.75939   0.53926   1.000
    N310    N    0.20640   0.87097   0.61271   1.000
    N311    N    0.70639   0.87096   0.61271   1.000
    N312    N    0.32629   0.76140   0.32881   1.000
    N313    N    0.82627   0.76139   0.32881   1.000
    N314    N    0.20956   0.89116   0.41014   1.000
    N315    N    0.70954   0.89115   0.41015   1.000
    N316    N    0.11750   0.92981   0.36913   1.000
    N317    N    0.61749   0.92981   0.36913   1.000
    N318    N    0.14864   0.79352   0.42818   1.000
    N319    N    0.64863   0.79352   0.42818   1.000
    N320    N    0.33333   0.14926   0.84999   1.000
    N321    N    0.83332   0.14926   0.84999   1.000
    N322    N    0.16665   0.85071   0.15002   1.000
    N323    N    0.66663   0.85072   0.15002   1.000
    N324    N    0.41696   0.64929   0.35038   1.000
    N325    N    0.91695   0.64929   0.35039   1.000
    N326    N    0.08302   0.35069   0.64962   1.000
    N327    N    0.58301   0.35071   0.64960   1.000
    O328    O    0.30318   0.39139   0.17554   1.000
    O329    O    0.80317   0.39139   0.17554   1.000
    O330    O    0.28056   0.41842   0.05968   1.000
    O331    O    0.78055   0.41842   0.05968   1.000
    O332    O    0.46102   0.24050   0.95266   1.000
    O333    O    0.96101   0.24051   0.95267   1.000
    O334    O    0.29215   0.17536   0.91162   1.000
    O335    O    0.79214   0.17537   0.91162   1.000
    O336    O    0.04857   0.28384   0.92575   1.000
    O337    O    0.54856   0.28383   0.92576   1.000
    O338    O    0.41319   0.17555   0.39120   1.000
    O339    O    0.91317   0.17554   0.39120   1.000
    O340    O    0.48079   0.05994   0.41815   1.000
    O341    O    0.98077   0.05994   0.41815   1.000
    O342    O    0.44258   0.95070   0.24060   1.000
    O343    O    0.94258   0.95067   0.24066   1.000
    O344    O    0.16403   0.91190   0.17715   1.000
    O345    O    0.66401   0.91191   0.17715   1.000
    O346    O    0.34633   0.92521   0.28430   1.000
    O347    O    0.84632   0.92520   0.28431   1.000
    O348    O    0.44568   0.32460   0.10894   1.000
    O349    O    0.94567   0.32461   0.10890   1.000
    O350    O    0.46940   0.43998   0.08175   1.000
    O351    O    0.96941   0.43997   0.08170   1.000
    O352    O    0.28897   0.54808   0.25912   1.000
    O353    O    0.78895   0.54807   0.25910   1.000
    O354    O    0.45868   0.58831   0.32322   1.000
    O355    O    0.95865   0.58830   0.32323   1.000
    O356    O    0.20153   0.57443   0.21565   1.000
    O357    O    0.70151   0.57447   0.21565   1.000
    O358    O    0.33682   0.10842   0.32492   1.000
    O359    O    0.83681   0.10841   0.32494   1.000
    O360    O    0.26914   0.08168   0.44016   1.000
    O361    O    0.76912   0.08166   0.44015   1.000
    O362    O    0.30770   0.25940   0.54770   1.000
    O363    O    0.80767   0.25939   0.54770   1.000
    O364    O    0.08598   0.32472   0.58771   1.000
    O365    O    0.58596   0.32472   0.58771   1.000
    O366    O    0.40352   0.21599   0.57451   1.000
    O367    O    0.90351   0.21599   0.57450   1.000
    O368    O    0.19682   0.60858   0.82446   1.000
    O369    O    0.69679   0.60859   0.82446   1.000
    O370    O    0.21942   0.58156   0.94033   1.000
    O371    O    0.71940   0.58156   0.94033   1.000
    O372    O    0.03896   0.75947   0.04735   1.000
    O373    O    0.53896   0.75947   0.04729   1.000
    O374    O    0.20783   0.82461   0.08830   1.000
    O375    O    0.70781   0.82461   0.08838   1.000
    O376    O    0.45139   0.71615   0.07431   1.000
    O377    O    0.95140   0.71614   0.07424   1.000
    O378    O    0.08680   0.82444   0.60880   1.000
    O379    O    0.58678   0.82444   0.60880   1.000
    O380    O    0.01920   0.94005   0.58185   1.000
    O381    O    0.51918   0.94005   0.58185   1.000
    O382    O    0.05740   0.04927   0.75933   1.000
    O383    O    0.55739   0.04926   0.75933   1.000
    O384    O    0.33595   0.08808   0.82280   1.000
    O385    O    0.71099   0.45189   0.74089   1.000
    O386    O    0.04131   0.41168   0.67677   1.000
    O387    O    0.54129   0.41167   0.67670   1.000
    O388    O    0.29845   0.42552   0.78435   1.000
    O389    O    0.79844   0.42552   0.78435   1.000
    O390    O    0.16317   0.89155   0.67509   1.000
    O391    O    0.66315   0.89155   0.67508   1.000
    O392    O    0.23084   0.91832   0.55985   1.000
    O393    O    0.73082   0.91831   0.55985   1.000
    O394    O    0.19229   0.74060   0.45230   1.000
    O395    O    0.69227   0.74059   0.45220   1.000
    O396    O    0.41401   0.67527   0.41229   1.000
    O397    O    0.91400   0.67528   0.41228   1.000
    O398    O    0.09646   0.78399   0.42550   1.000
    O399    O    0.59644   0.78399   0.42550   1.000
loop_
    _geom_bond_atom_site_label_1
    _geom_bond_atom_site_label_2
    _geom_bond_distance
    _geom_bond_site_symmetry_2
    _ccdc_geom_bond_type
    H69    C186      1.08425  1_554   S
    H68    C185      1.08423  1_554   S
    C128   C130      1.39031      .   S
    C128   N115      1.36631      .   S
    C128   H27       1.08386  1_554   S
    C127   C129      1.39025      .   S
    C127   N114      1.36635      .   S
    C127   H26       1.08386  1_554   S
    H3     C87       1.08310      .   S
    H2     C86       1.08329      .   S
    C130   N113      1.36730      .   S
    C130   H29       1.08422  1_554   S
    C129   N112      1.36729      .   S
    C129   H28       1.08424  1_554   S
    N215   C86       1.36547      .   S
    N215   C88       1.35470      .   S
    N216   C87       1.36538      .   S
    N216   C89       1.35443      .   S
    O373   N277      1.25029      .   S
    O372   N276      1.25027      .   S
    H66    C183      1.08383  1_554   S
    H67    C184      1.08384  1_554   S
    C87    C85       1.39463      .   S
    C86    C84       1.39447      .   S
    O331   N218      1.25258      .   S
    O330   N217      1.25262      .   S
    N114   C125      1.35097      .   S
    N115   C126      1.35095      .   S
    N277   O376      1.24971      .   S
    N277   C154      1.42542      .   S
    N276   O377      1.25006  1_455   S
    N276   C153      1.42538      .   S
    O351   N246      1.25280      .   S
    O350   N245      1.25259      .   S
    O374   N322      1.25595      .   S
    O375   N323      1.25495      .   S
    N273   C154      1.35398      .   S
    N273   C158      1.36762      .   S
    N272   C153      1.35434      .   S
    N272   C157      1.36726      .   S
    C153   N274      1.35106      .   S
    C154   N275      1.35102      .   S
    C88    N217      1.41845      .   S
    C88    N213      1.34976      .   S
    C89    N218      1.41842      .   S
    C89    N214      1.34966      .   S
    H11    C99       1.08602      .   S
    H10    C98       1.08526      .   S
    N113   C126      1.35434      .   S
    N112   C125      1.35430      .   S
    O349   N246      1.25578      .   S
    O348   N245      1.25559      .   S
    N218   O329      1.25555      .   S
    N217   O328      1.25551      .   S
    C158   H49       1.08413      .   S
    C158   C156      1.39043      .   S
    C157   H48       1.08404      .   S
    C157   C155      1.39042      .   S
    N246   C122      1.40170      .   S
    N245   C121      1.41830      .   S
    C126   N249      1.42574      .   S
    C125   N116      1.42588      .   S
    C84    N213      1.36490      .   S
    C84    H0        1.08547      .   S
    C85    N214      1.36489      .   S
    C85    H1        1.08550      .   S
    N275   C156      1.36633      .   S
    N274   C155      1.36634      .   S
    H13    C101      1.08323      .   S
    H12    C100      1.08321      .   S
    C156   H47       1.08360      .   S
    C155   H46       1.08363      .   S
    N323   O345      1.25494      .   S
    N323   C208      1.41750      .   S
    N322   O344      1.25498      .   S
    N322   C207      1.41744      .   S
    H24    C123      1.08358      .   S
    H25    C124      1.08356      .   S
    C98    C101      1.39476      .   S
    C98    N227      1.36484      .   S
    C99    C100      1.39493  1_655   S
    C99    N228      1.36485      .   S
    N271   C208      1.35392      .   S
    N271   C152      1.36444      .   S
    N270   C207      1.35362      .   S
    N270   C151      1.36445      .   S
    C101   N230      1.36529      .   S
    C100   N229      1.36529      .   S
    C207   N233      1.35423      .   S
    C208   N234      1.35386      .   S
    N249   O357      1.24957      .   S
    N249   O353      1.25008      .   S
    N116   O356      1.24959      .   S
    N116   O352      1.25022      .   S
    C122   N244      1.36427      .   S
    C122   N242      1.35852      .   S
    C121   N243      1.35432      .   S
    C121   N241      1.34975      .   S
    C123   N247      1.36432      .   S
    C123   C197      1.39216      .   S
    C124   N248      1.36435      .   S
    C124   C198      1.39214      .   S
    C152   H45       1.08357      .   S
    C152   C105      1.39218      .   S
    C151   H44       1.08357      .   S
    C151   C104      1.39208      .   S
    N228   C103      1.34976      .   S
    N227   C102      1.34977      .   S
    N247   C209      1.35395      .   S
    N248   C210      1.35392      .   S
    N243   C119      1.36465      .   S
    N244   C120      1.36548      .   S
    O342   N239      1.25085      .   S
    O343   N240      1.25034      .   S
    N229   C103      1.35449  1_455   S
    N230   C102      1.35432      .   S
    N233   C104      1.36426      .   S
    N234   C105      1.36423      .   S
    H74    C197      1.08358      .   S
    H75    C198      1.08359      .   S
    N242   C118      1.36489      .   S
    N241   C117      1.36470      .   S
    C197   N312      1.36443      .   S
    C198   N313      1.36446      .   S
    O346   N239      1.24973      .   S
    O347   N240      1.24964      .   S
    C104   H14       1.08373      .   S
    C105   H15       1.08366      .   S
    C103   N232      1.41828      .   S
    C102   N231      1.41829      .   S
    N239   C106      1.42568      .   S
    N240   C107      1.42566      .   S
    C210   N313      1.35394      .   S
    C210   N325      1.41768      .   S
    C209   N312      1.35394      .   S
    C209   N324      1.41757      .   S
    C119   C117      1.39476      .   S
    C119   H22       1.08372      .   S
    C120   C118      1.39470      .   S
    C120   H23       1.08301      .   S
    O354   N324      1.25492      .   S
    O355   N325      1.25493      .   S
    O358   N254      1.25562      .   S
    O359   N255      1.25554      .   S
    H76    C201      1.08371  1_545   S
    H77    C202      1.08371  1_545   S
    C118   H21       1.08534      .   S
    C117   H20       1.08533      .   S
    H31    C132      1.08537      .   S
    H30    C131      1.08536      .   S
    N251   C132      1.36532      .   S
    N251   C136      1.35050      .   S
    N250   C131      1.36480      .   S
    N250   C135      1.34984      .   S
    N324   O396      1.25486      .   S
    N325   O397      1.25465      .   S
    C201   N316      1.36627      .   S
    C201   C203      1.38963      .   S
    C202   N317      1.36627      .   S
    C202   C204      1.39042      .   S
    N316   C199      1.35083      .   S
    N317   C200      1.35088      .   S
    C131   C133      1.39483      .   S
    C132   C134      1.39483      .   S
    C107   N236      1.35440      .   S
    C107   N238      1.35094      .   S
    C106   N235      1.35439      .   S
    C106   N237      1.35095      .   S
    N232   O339      1.25552      .   S
    N232   O341      1.25273      .   S
    N231   O338      1.25552      .   S
    N231   O340      1.25272      .   S
    H78    C203      1.08480  1_545   S
    H79    C204      1.08434  1_545   S
    C203   N314      1.36771      .   S
    C204   N315      1.36740      .   S
    N255   C136      1.41828      .   S
    N255   O361      1.25273      .   S
    N254   C135      1.41827      .   S
    N254   O360      1.25280      .   S
    N235   C110      1.36728      .   S
    N236   C111      1.36724      .   S
    C136   N253      1.35439      .   S
    C135   N252      1.35435      .   S
    C199   N314      1.35440      .   S
    C199   N318      1.42533      .   S
    C200   N315      1.35439      .   S
    C200   N319      1.42536      .   S
    O399   N319      1.24964      .   S
    O398   N318      1.24961      .   S
    N319   O395      1.24970      .   S
    N318   O394      1.25042      .   S
    N237   C108      1.36622      .   S
    N238   C109      1.35155      .   S
    C134   N253      1.36530      .   S
    C134   H33       1.08318      .   S
    C133   N252      1.36529      .   S
    C133   H32       1.08319      .   S
    H56    C169      1.08365      .   S
    H57    C170      1.08365      .   S
    C111   C109      1.39115      .   S
    C111   H19       1.08414      .   S
    C110   C108      1.39036      .   S
    C110   H18       1.08418      .   S
    C109   H17       1.09487      .   S
    C108   H16       1.08367      .   S
    H58    C171      1.08417      .   S
    H59    C172      1.08413      .   S
    C169   C171      1.39040      .   S
    C169   N288      1.36621      .   S
    C170   C172      1.39037      .   S
    C170   N289      1.36626      .   S
    H73    C82       1.08315      .   S
    H72    C81       1.08315      .   S
    C171   N286      1.36726      .   S
    C172   N287      1.36732      .   S
    N309   C82       1.36534      .   S
    N309   C196      1.35436      .   S
    N308   C81       1.36532      .   S
    N308   C83       1.35438      .   S
    O362   N262      1.25051      .   S
    O363   N263      1.25057      .   S
    C82    C80       1.39483      .   S
    C81    C187      1.39484      .   S
    O392   N310      1.25274      .   S
    O393   N311      1.25274      .   S
    N289   C168      1.35095      .   S
    N288   C167      1.35094      .   S
    N262   O366      1.24963      .   S
    N262   C139      1.42539      .   S
    N263   O367      1.24965      .   S
    N263   C140      1.42540      .   S
    O380   N282      1.25273      .   S
    O381   N283      1.25271      .   S
    O364   N326      1.25483      .   S
    O365   N327      1.25464      .   S
    N258   C139      1.35433      .   S
    N258   C143      1.36732      .   S
    N259   C140      1.35436      .   S
    N259   C144      1.36740      .   S
    C139   N260      1.35087      .   S
    C140   N261      1.35084      .   S
    C83    N310      1.41832      .   S
    C83    N306      1.34981      .   S
    C196   N311      1.41834      .   S
    C196   N307      1.34981      .   S
    H60    C173      1.08533      .   S
    H61    C174      1.08533      .   S
    O379   N283      1.25551      .   S
    O378   N282      1.25552      .   S
    N286   C167      1.35442      .   S
    N287   C168      1.35441      .   S
    N311   O391      1.25556      .   S
    N310   O390      1.25564      .   S
    C143   H38       1.08424  1_545   S
    C143   C141      1.39060      .   S
    C144   H39       1.08434  1_545   S
    C144   C142      1.39042      .   S
    N283   C164      1.41826      .   S
    N282   C163      1.41827      .   S
    C168   N291      1.42562      .   S
    C167   N290      1.42555      .   S
    C80    N307      1.36481      .   S
    C80    H71       1.08538      .   S
    C187   N306      1.36478      .   S
    C187   H70       1.08538      .   S
    N261   C142      1.36626      .   S
    N260   C141      1.36629      .   S
    H63    C176      1.08313      .   S
    H62    C175      1.08316      .   S
    C141   H36       1.08367  1_545   S
    C142   H37       1.08366  1_545   S
    N327   O387      1.25448      .   S
    N327   C212      1.41781      .   S
    N326   O386      1.25491      .   S
    N326   C211      1.41750      .   S
    H55    C166      1.08355      .   S
    H54    C165      1.08367      .   S
    C174   C176      1.39478      .   S
    C174   N293      1.36471      .   S
    C173   C175      1.39475      .   S
    C173   N292      1.36438      .   S
    N256   C211      1.35394      .   S
    N256   C137      1.36442      .   S
    N257   C212      1.35390      .   S
    N257   C138      1.36448      .   S
    C176   N295      1.36530      .   S
    C175   N294      1.36530      .   S
    C211   N298      1.35300      .   S
    C212   N299      1.35384      .   S
    N290   O189      1.24906      .   S
    N290   O382      1.25040      .   S
    N291   O190      1.24962      .   S
    N291   O383      1.25039      .   S
    C163   N281      1.35447  1_455   S
    C163   N278      1.34977      .   S
    C164   N280      1.35433      .   S
    C164   N279      1.34979      .   S
    C166   N285      1.36426      .   S
    C166   C91       1.39220      .   S
    C165   N284      1.36422      .   S
    C165   C90       1.38464      .   S
    C137   H34       1.08360      .   S
    C137   C179      1.39224      .   S
    C138   H35       1.08357      .   S
    C138   C180      1.39209      .   S
    N292   C177      1.34994      .   S
    N293   C178      1.34978      .   S
    N285   C206      1.35386      .   S
    N284   C205      1.35387      .   S
    N280   C161      1.36530      .   S
    N281   C162      1.36529      .   S
    O195   N304      1.25024      .   S
    O385   N305      1.25026      .   S
    N295   C178      1.35436      .   S
    N294   C177      1.35432      .   S
    N298   C179      1.36478      .   S
    N299   C180      1.36442      .   S
    N278   C159      1.36485      .   S
    N279   C160      1.36484      .   S
    H5     C91       1.08354      .   S
    H4     C90       1.08588      .   S
    C90    N219      1.36962      .   S
    C91    N220      1.36447      .   S
    O389   N305      1.24962      .   S
    O388   N304      1.24961      .   S
    C179   H64       1.08354      .   S
    C180   H65       1.08352      .   S
    C178   N297      1.40488      .   S
    C177   N296      1.41843      .   S
    N304   C181      1.42582      .   S
    N305   C182      1.42486      .   S
    C205   N219      1.35392      .   S
    C205   N320      1.41754      .   S
    C206   N220      1.35395      .   S
    C206   N321      1.41756      .   S
    C161   C160      1.39476      .   S
    C161   H52       1.08312      .   S
    C162   C159      1.39491  1_655   S
    C162   H53       1.08224      .   S
    O384   N320      1.25542      .   S
    O188   N321      1.25544      .   S
    O369   N269      1.25565      .   S
    O368   N268      1.25550      .   S
    H7     C95       1.08362      .   S
    H6     C94       1.08363      .   S
    C159   H50       1.08526      .   S
    C160   H51       1.08527      .   S
    H40    C145      1.08539      .   S
    H41    C146      1.08532      .   S
    N265   C146      1.36473      .   S
    N265   C150      1.34966      .   S
    N264   C145      1.36480      .   S
    N264   C149      1.34976      .   S
    N321   O335      1.25487      .   S
    N320   O334      1.25481      .   S
    C95    N224      1.36636      .   S
    C95    C97       1.39040      .   S
    C94    N223      1.36632      .   S
    C94    C96       1.39040      .   S
    N224   C93       1.35101      .   S
    N223   C92       1.35098      .   S
    C146   C148      1.39480      .   S
    C145   C147      1.39478      .   S
    N297   O192      1.26179      .   S
    N297   O194      1.25852      .   S
    C182   N301      1.35428      .   S
    C182   N303      1.35199      .   S
    C181   N300      1.35433      .   S
    C181   N302      1.35091      .   S
    N296   O191      1.25557      .   S
    N296   O193      1.25257      .   S
    H9     C97       1.08410      .   S
    H8     C96       1.08410      .   S
    C97    N222      1.36734      .   S
    C96    N221      1.36721      .   S
    N268   C149      1.41846      .   S
    N268   O370      1.25267      .   S
    N269   C150      1.41841      .   S
    N269   O371      1.25262      .   S
    N300   C185      1.36740      .   S
    N301   C186      1.36725      .   S
    C150   N267      1.35446      .   S
    C149   N266      1.35432      .   S
    C93    N222      1.35423      .   S
    C93    N226      1.42548      .   S
    C92    N221      1.35430      .   S
    C92    N225      1.42555      .   S
    O336   N226      1.25007  1_455   S
    O337   N225      1.24967      .   S
    N226   O333      1.25026      .   S
    N225   O332      1.25026      .   S
    N302   C183      1.36642      .   S
    N303   C184      1.36630      .   S
    C148   N267      1.36543      .   S
    C148   H43       1.08322      .   S
    C147   N266      1.36541      .   S
    C147   H42       1.08313      .   S
    C186   C184      1.39029      .   S
    C185   C183      1.39027      .   S
