# CIF file generated by openbabel 2.4.90, see http://openbabel.sf.net
data_I
_chemical_name_common ''
_cell_length_a 22.412
_cell_length_b 17.845
_cell_length_c 17.876
_cell_angle_alpha 79.011
_cell_angle_beta 71.829
_cell_angle_gamma 71.745
_space_group_name_H-M_alt 'P 1'
_space_group_name_Hall 'P 1'
loop_
    _symmetry_equiv_pos_as_xyz
    x,y,z
loop_
    _atom_site_label
    _atom_site_type_symbol
    _atom_site_fract_x
    _atom_site_fract_y
    _atom_site_fract_z
    _atom_site_occupancy
    N0      N    0.49229   0.10117   0.25505   1.000
    N1      N    0.64438   0.28653   0.71344   1.000
    N2      N    0.57938   0.60115   0.75496   1.000
    N3      N    0.07940   0.60115   0.75505   1.000
    N4      N    0.14439   0.28653   0.71345   1.000
    N5      N    0.44016   0.40232   0.89360   1.000
    N6      N    0.60555   0.78638   0.21352   1.000
    N7      N    0.41194   0.89279   0.40245   1.000
    N8      N    0.83814   0.09757   0.60670   1.000
    N9      N    0.19023   0.39301   0.90243   1.000
    N10     N    0.39441   0.21359   0.78642   1.000
    N11     N    0.16182   0.90242   0.39329   1.000
    N12     N    0.75729   0.24507   0.39862   1.000
    N13     N    0.00769   0.89882   0.74494   1.000
    N14     N    0.92057   0.39883   0.24484   1.000
    N15     N    0.35558   0.71345   0.28655   1.000
    N16     N    0.05982   0.59766   0.10640   1.000
    N17     N    0.33816   0.09757   0.60670   1.000
    N18     N    0.30975   0.60696   0.09757   1.000
    N19     N    0.99228   0.10116   0.25505   1.000
    N20     N    0.08803   0.10720   0.59753   1.000
    N21     N    0.82894   0.25487   0.10147   1.000
    N22     N    0.50767   0.89882   0.74494   1.000
    N23     N    0.10557   0.78638   0.21352   1.000
    N24     N    0.69021   0.39301   0.90243   1.000
    N25     N    0.67101   0.74511   0.89853   1.000
    N26     N    0.91193   0.89278   0.40237   1.000
    N27     N    0.55981   0.59766   0.10639   1.000
    N28     N    0.25731   0.24508   0.39863   1.000
    N29     N    0.66181   0.90242   0.39329   1.000
    N30     N    0.80973   0.60697   0.09757   1.000
    N31     N    0.24268   0.75491   0.60137   1.000
    N32     N    0.74266   0.75490   0.60137   1.000
    N33     N    0.42059   0.39883   0.24495   1.000
    N34     N    0.85557   0.71345   0.28655   1.000
    N35     N    0.58802   0.10719   0.59753   1.000
    N36     N    0.32896   0.25487   0.10147   1.000
    N37     N    0.94014   0.40232   0.89360   1.000
    N38     N    0.17103   0.74510   0.89853   1.000
    N39     N    0.89440   0.21360   0.78647   1.000
    Zr40    Zr   0.07822   0.42804   0.82131   1.000
    O41     O    0.03178   0.42182   0.84539   1.000
    O42     O    0.11391   0.41701   0.85032   1.000
    O43     O    0.07777   0.48518   0.79704   1.000
    O44     O    0.10102   0.38019   0.78691   1.000
    Zr45    Zr   0.79674   0.82091   0.42841   1.000
    O46     O    0.83440   0.84485   0.42209   1.000
    O47     O    0.75211   0.85007   0.41735   1.000
    O48     O    0.78092   0.79672   0.48551   1.000
    O49     O    0.81514   0.78660   0.38050   1.000
    Zr50    Zr   0.82833   0.32100   0.92840   1.000
    O51     O    0.78188   0.34497   0.92209   1.000
    O52     O    0.86395   0.35009   0.91745   1.000
    O53     O    0.85111   0.28673   0.88045   1.000
    O54     O    0.82772   0.29677   0.98552   1.000
    Zr55    Zr   0.87474   0.24999   0.25007   1.000
    O56     O    0.83482   0.25088   0.29864   1.000
    O57     O    0.88999   0.29868   0.25086   1.000
    O58     O    0.91469   0.20132   0.24920   1.000
    O59     O    0.85947   0.24909   0.20150   1.000
    Zr60    Zr   0.67162   0.67899   0.07160   1.000
    O61     O    0.64884   0.71326   0.11954   1.000
    O62     O    0.67223   0.70322   0.01448   1.000
    O63     O    0.63600   0.64990   0.08254   1.000
    O64     O    0.71807   0.65501   0.07791   1.000
    Zr65    Zr   0.12523   0.74999   0.74993   1.000
    O66     O    0.14050   0.75089   0.79850   1.000
    O67     O    0.10998   0.70131   0.74911   1.000
    O68     O    0.16515   0.74910   0.70135   1.000
    O69     O    0.08528   0.79866   0.75079   1.000
    Zr70    Zr   0.95319   0.07201   0.67872   1.000
    O71     O    0.91559   0.07817   0.65473   1.000
    O72     O    0.99779   0.08311   0.64968   1.000
    O73     O    0.96916   0.01485   0.70298   1.000
    O74     O    0.93478   0.11988   0.71310   1.000
    Zr75    Zr   0.04678   0.92797   0.32128   1.000
    O76     O    0.00218   0.91687   0.35029   1.000
    O77     O    0.06519   0.88010   0.28690   1.000
    O78     O    0.03080   0.98513   0.29702   1.000
    O79     O    0.08438   0.92181   0.34526   1.000
    Zr80    Zr   0.92174   0.57194   0.17870   1.000
    O81     O    0.89895   0.61979   0.21309   1.000
    O82     O    0.96818   0.57816   0.15462   1.000
    O83     O    0.92220   0.51480   0.20294   1.000
    O84     O    0.88605   0.58297   0.14968   1.000
    Zr85    Zr   0.70321   0.17907   0.57159   1.000
    O86     O    0.74784   0.14991   0.58265   1.000
    O87     O    0.66556   0.15512   0.57789   1.000
    O88     O    0.68481   0.21337   0.61950   1.000
    O89     O    0.71904   0.20326   0.51449   1.000
    Zr90    Zr   0.20322   0.17907   0.57159   1.000
    O91     O    0.16557   0.15512   0.57789   1.000
    O92     O    0.21905   0.20326   0.51449   1.000
    O93     O    0.24786   0.14991   0.58265   1.000
    O94     O    0.18482   0.21337   0.61950   1.000
    Zr95    Zr   0.45320   0.07200   0.67870   1.000
    O96     O    0.43479   0.11987   0.71307   1.000
    O97     O    0.41560   0.07817   0.65472   1.000
    O98     O    0.49779   0.08310   0.64967   1.000
    O99     O    0.46917   0.01484   0.70297   1.000
    Zr100   Zr   0.32835   0.32099   0.92840   1.000
    O101    O    0.32773   0.29676   0.98552   1.000
    O102    O    0.36397   0.35008   0.91745   1.000
    O103    O    0.28190   0.34497   0.92209   1.000
    O104    O    0.35112   0.28672   0.88044   1.000
    Zr105   Zr   0.42175   0.57195   0.17800   1.000
    O106    O    0.39896   0.61980   0.21266   1.000
    O107    O    0.42221   0.51480   0.20253   1.000
    O108    O    0.38607   0.58297   0.14925   1.000
    O109    O    0.46819   0.57817   0.15418   1.000
    Zr110   Zr   0.37476   0.24999   0.25006   1.000
    O111    O    0.41471   0.20133   0.24920   1.000
    O112    O    0.39001   0.29868   0.25088   1.000
    O113    O    0.35949   0.24909   0.20149   1.000
    O114    O    0.33484   0.25088   0.29864   1.000
    Zr115   Zr   0.57822   0.42803   0.82131   1.000
    O116    O    0.61390   0.41701   0.85032   1.000
    O117    O    0.57776   0.48518   0.79702   1.000
    O118    O    0.60101   0.38019   0.78691   1.000
    O119    O    0.53178   0.42181   0.84539   1.000
    Zr120   Zr   0.29676   0.82092   0.42841   1.000
    O121    O    0.25212   0.85007   0.41735   1.000
    O122    O    0.28093   0.79672   0.48551   1.000
    O123    O    0.31515   0.78661   0.38050   1.000
    O124    O    0.33441   0.84486   0.42211   1.000
    Zr125   Zr   0.54677   0.92797   0.32127   1.000
    O126    O    0.50218   0.91688   0.35030   1.000
    O127    O    0.58437   0.92181   0.34526   1.000
    O128    O    0.53080   0.98514   0.29701   1.000
    O129    O    0.56518   0.88010   0.28689   1.000
    Zr130   Zr   0.62521   0.74998   0.74993   1.000
    O131    O    0.66513   0.74910   0.70135   1.000
    O132    O    0.58526   0.79865   0.75079   1.000
    O133    O    0.60996   0.70130   0.74909   1.000
    O134    O    0.64049   0.75089   0.79850   1.000
    Zr135   Zr   0.17163   0.67898   0.07160   1.000
    O136    O    0.13601   0.64989   0.08255   1.000
    O137    O    0.21809   0.65500   0.07791   1.000
    O138    O    0.14886   0.71325   0.11954   1.000
    O139    O    0.17225   0.70321   0.01448   1.000
loop_
    _geom_bond_atom_site_label_1
    _geom_bond_atom_site_label_2
    _geom_bond_distance
    _geom_bond_site_symmetry_2
    _ccdc_geom_bond_type
    Zr40   O41       1.02748      .   S
    N37    O41       2.07630  1_655   S
    Zr40   O42       1.03379      .   S
    N9     O42       2.08796      .   S
    Zr40   O43       1.02753      .   S
    N3     O43       2.07010      .   S
    Zr40   O44       1.04844      .   S
    N4     O44       2.11782      .   S
    Zr45   O46       1.02737      .   S
    N26    O46       2.07595      .   S
    Zr45   O47       1.03372      .   S
    N29    O47       2.08774      .   S
    Zr45   O48       1.02766      .   S
    N32    O48       2.07026      .   S
    Zr45   O49       1.04874      .   S
    N34    O49       2.11921      .   S
    Zr50   O51       1.02743      .   S
    N24    O51       2.07628      .   S
    Zr50   O52       1.03369      .   S
    N37    O52       2.08763      .   S
    Zr50   O53       1.04900      .   S
    N39    O53       2.11963      .   S
    Zr50   O54       1.02780      .   S
    N21    O54       2.07067  1_554   S
    Zr55   O56       1.03266      .   S
    N12    O56       2.08082      .   S
    Zr55   O57       1.03214      .   S
    N14    O57       2.07935      .   S
    Zr55   O58       1.03218      .   S
    N19    O58       2.07956      .   S
    Zr55   O59       1.03231      .   S
    N21    O59       2.07950      .   S
    Zr60   O61       1.04897      .   S
    N6     O61       2.11955      .   S
    Zr60   O62       1.02779      .   S
    N25    O62       2.07067  1_556   S
    Zr60   O63       1.03373      .   S
    N27    O63       2.08763      .   S
    Zr60   O64       1.02740      .   S
    N30    O64       2.07620      .   S
    Zr65   O66       1.03229      .   S
    N38    O66       2.07949      .   S
    Zr65   O67       1.03232      .   S
    N3     O67       2.07967      .   S
    Zr65   O68       1.03277      .   S
    N31    O68       2.08072      .   S
    Zr65   O69       1.03219      .   S
    N13    O69       2.07961      .   S
    Zr70   O71       1.02739      .   S
    N8     O71       2.07596      .   S
    Zr70   O72       1.03390      .   S
    N20    O72       2.08822  1_455   S
    Zr70   O73       1.02769      .   S
    N13    O73       2.07044  1_465   S
    Zr70   O74       1.04822      .   S
    N39    O74       2.11762      .   S
    Zr75   O76       1.03385      .   S
    N26    O76       2.08810  1_655   S
    Zr75   O77       1.04825      .   S
    N23    O77       2.11771      .   S
    Zr75   O78       1.02774      .   S
    N19    O78       2.07055  1_645   S
    Zr75   O79       1.02735      .   S
    N11    O79       2.07586      .   S
    Zr80   O81       1.04835      .   S
    N34    O81       2.11785      .   S
    Zr80   O82       1.02747      .   S
    N16    O82       2.07630  1_455   S
    Zr80   O83       1.02740      .   S
    N14    O83       2.06983      .   S
    Zr80   O84       1.03384      .   S
    N30    O84       2.08804      .   S
    Zr85   O86       1.03367      .   S
    N8     O86       2.08763      .   S
    Zr85   O87       1.02747      .   S
    N35    O87       2.07619      .   S
    Zr85   O88       1.04878      .   S
    N1     O88       2.11922      .   S
    Zr85   O89       1.02767      .   S
    N12    O89       2.07028      .   S
    Zr90   O91       1.02747      .   S
    N20    O91       2.07617      .   S
    Zr90   O92       1.02766      .   S
    N28    O92       2.07023      .   S
    Zr90   O93       1.03367      .   S
    N17    O93       2.08763      .   S
    Zr90   O94       1.04878      .   S
    N4     O94       2.11926      .   S
    Zr95   O96       1.04814      .   S
    N10    O96       2.11726      .   S
    Zr95   O97       1.02727      .   S
    N17    O97       2.07578      .   S
    Zr95   O98       1.03372      .   S
    N35    O98       2.08791      .   S
    Zr95   O99       1.02772      .   S
    N22    O99       2.07047  1_565   S
    Zr100  O101      1.02774      .   S
    N36    O101      2.07068  1_554   S
    Zr100  O102      1.03367      .   S
    N5     O102      2.08759      .   S
    Zr100  O103      1.02742      .   S
    N9     O103      2.07624      .   S
    Zr100  O104      1.04919      .   S
    N10    O104      2.12019      .   S
    Zr105  O106      1.05109      .   S
    N15    O106      2.12271      .   S
    Zr105  O107      1.02865      .   S
    N33    O107      2.07143      .   S
    Zr105  O108      1.03050      .   S
    N18    O108      2.08280      .   S
    Zr105  O109      1.02693      .   S
    N27    O109      2.07546      .   S
    Zr110  O111      1.03215      .   S
    N0     O111      2.07950      .   S
    Zr110  O112      1.03229      .   S
    N33    O112      2.07964      .   S
    Zr110  O113      1.03226      .   S
    N36    O113      2.07944      .   S
    Zr110  O114      1.03282      .   S
    N28    O114      2.08083      .   S
    Zr115  O116      1.03374      .   S
    N24    O116      2.08781      .   S
    Zr115  O117      1.02762      .   S
    N2     O117      2.07030      .   S
    Zr115  O118      1.04835      .   S
    N1     O118      2.11791      .   S
    Zr115  O119      1.02733      .   S
    N5     O119      2.07608      .   S
    Zr120  O121      1.03371      .   S
    N11    O121      2.08773      .   S
    Zr120  O122      1.02766      .   S
    N31    O122      2.07026      .   S
    Zr120  O123      1.04877      .   S
    N15    O123      2.11927      .   S
    Zr120  O124      1.02744      .   S
    N7     O124      2.07612      .   S
    Zr125  O126      1.03375      .   S
    N7     O126      2.08794      .   S
    Zr125  O127      1.02736      .   S
    N29    O127      2.07589      .   S
    Zr125  O128      1.02768      .   S
    N0     O128      2.07044  1_545   S
    Zr125  O129      1.04818      .   S
    N6     O129      2.11755      .   S
    Zr130  O131      1.03274      .   S
    N32    O131      2.08069      .   S
    Zr130  O132      1.03219      .   S
    N22    O132      2.07958      .   S
    Zr130  O133      1.03241      .   S
    N2     O133      2.07992      .   S
    Zr130  O134      1.03228      .   S
    N25    O134      2.07944      .   S
    Zr135  O136      1.03370      .   S
    N16    O136      2.08766      .   S
    Zr135  O137      1.02742      .   S
    N18    O137      2.07624      .   S
    Zr135  O138      1.04897      .   S
    N23    O138      2.11948      .   S
    Zr135  O139      1.02778      .   S
    N38    O139      2.07064  1_556   S
