# CIF file generated by openbabel 2.4.90, see http://openbabel.sf.net
data_I
_chemical_name_common ''
_cell_length_a 14.039
_cell_length_b 17.601
_cell_length_c 19.954
_cell_angle_alpha 102.064
_cell_angle_beta 104.579
_cell_angle_gamma 83.83
_space_group_name_H-M_alt 'P 1'
_space_group_name_Hall 'P 1'
loop_
    _symmetry_equiv_pos_as_xyz
    x,y,z
loop_
    _atom_site_label
    _atom_site_type_symbol
    _atom_site_fract_x
    _atom_site_fract_y
    _atom_site_fract_z
    _atom_site_occupancy
    H0      H    0.09211   0.28056   0.46620   1.000
    H1      H    0.09210   0.28056   0.96620   1.000
    H2      H    0.09209   0.78056   0.46619   1.000
    H3      H    0.09209   0.78055   0.96619   1.000
    H4      H    0.59281   0.28073   0.46663   1.000
    H5      H    0.59281   0.28073   0.96663   1.000
    H6      H    0.59280   0.78073   0.46660   1.000
    H7      H    0.59279   0.78073   0.96663   1.000
    H8      H    0.32337   0.42410   0.09695   1.000
    H9      H    0.32337   0.42410   0.59695   1.000
    H10     H    0.32335   0.92411   0.09695   1.000
    H11     H    0.32336   0.92410   0.59695   1.000
    H12     H    0.82458   0.42410   0.09680   1.000
    H13     H    0.82458   0.42410   0.59681   1.000
    H14     H    0.82458   0.92410   0.09682   1.000
    H15     H    0.82457   0.92409   0.59681   1.000
    H16     H    0.36202   0.45258   0.49050   1.000
    H17     H    0.36202   0.45257   0.99052   1.000
    H18     H    0.36201   0.95257   0.49053   1.000
    H19     H    0.36200   0.95258   0.99050   1.000
    H20     H    0.86252   0.45267   0.49013   1.000
    H21     H    0.86252   0.45266   0.99010   1.000
    H22     H    0.86253   0.95265   0.49013   1.000
    H23     H    0.86252   0.95265   0.99013   1.000
    H24     H    0.40872   0.21944   0.03330   1.000
    H25     H    0.40873   0.21944   0.53331   1.000
    H26     H    0.40872   0.71945   0.03330   1.000
    H27     H    0.40872   0.71945   0.53331   1.000
    H28     H    0.90868   0.21950   0.03328   1.000
    H29     H    0.90868   0.21950   0.53329   1.000
    H30     H    0.90867   0.71950   0.03328   1.000
    H31     H    0.90867   0.71950   0.53328   1.000
    H32     H    0.17752   0.07596   0.40241   1.000
    H33     H    0.17751   0.07596   0.90240   1.000
    H34     H    0.17753   0.57596   0.40240   1.000
    H35     H    0.17753   0.57596   0.90240   1.000
    H36     H    0.67762   0.07592   0.40230   1.000
    H37     H    0.67761   0.07592   0.90229   1.000
    H38     H    0.67761   0.57592   0.40229   1.000
    H39     H    0.67761   0.57592   0.90220   1.000
    H40     H    0.13871   0.04741   0.00877   1.000
    H41     H    0.13871   0.04740   0.50877   1.000
    H42     H    0.13872   0.54740   0.00877   1.000
    H43     H    0.13871   0.54740   0.50877   1.000
    H44     H    0.63874   0.04733   0.00864   1.000
    H45     H    0.63874   0.04732   0.50864   1.000
    H46     H    0.63873   0.54733   0.00863   1.000
    H47     H    0.63873   0.54733   0.50863   1.000
    C48     C    0.24635   0.38532   0.41802   1.000
    C49     C    0.24635   0.38532   0.91802   1.000
    C50     C    0.24635   0.88532   0.41802   1.000
    C51     C    0.24634   0.88532   0.91800   1.000
    C52     C    0.74665   0.38537   0.41793   1.000
    C53     C    0.74664   0.38536   0.91793   1.000
    C54     C    0.74665   0.88536   0.41793   1.000
    C55     C    0.74665   0.88536   0.91793   1.000
    C56     C    0.17197   0.33430   0.41122   1.000
    C57     C    0.17196   0.33430   0.91122   1.000
    C58     C    0.17196   0.83430   0.41122   1.000
    C59     C    0.17196   0.83430   0.91122   1.000
    C60     C    0.67230   0.33440   0.41134   1.000
    C61     C    0.67229   0.33439   0.91134   1.000
    C62     C    0.67230   0.83439   0.41134   1.000
    C63     C    0.67229   0.83439   0.91134   1.000
    C64     C    0.14892   0.32036   0.47145   1.000
    C65     C    0.14891   0.32036   0.97145   1.000
    C66     C    0.14890   0.82036   0.47144   1.000
    C67     C    0.14890   0.82036   0.97144   1.000
    C68     C    0.64963   0.32046   0.47170   1.000
    C69     C    0.64962   0.32046   0.97170   1.000
    C70     C    0.64961   0.82047   0.47169   1.000
    C71     C    0.64961   0.82046   0.97100   1.000
    C72     C    0.20076   0.35491   0.03889   1.000
    C73     C    0.20076   0.35490   0.53880   1.000
    C74     C    0.20075   0.85491   0.03888   1.000
    C75     C    0.20075   0.85490   0.53888   1.000
    C76     C    0.73906   0.58687   0.64385   1.000
    C77     C    0.37264   0.21179   0.15906   1.000
    C78     C    0.37264   0.21179   0.65906   1.000
    C79     C    0.37264   0.71179   0.15906   1.000
    C80     C    0.70186   0.35496   0.03902   1.000
    C81     C    0.70186   0.35496   0.53902   1.000
    C82     C    0.70185   0.85496   0.03902   1.000
    C83     C    0.70185   0.85496   0.53902   1.000
    C84     C    0.28003   0.39976   0.04501   1.000
    C85     C    0.28003   0.39976   0.54501   1.000
    C86     C    0.28002   0.89976   0.04501   1.000
    C87     C    0.28002   0.89975   0.54501   1.000
    C88     C    0.78105   0.39980   0.04493   1.000
    C89     C    0.78105   0.39980   0.54493   1.000
    C90     C    0.78105   0.89980   0.04493   1.000
    C91     C    0.78105   0.89979   0.54493   1.000
    C92     C    0.30238   0.41522   0.48500   1.000
    C93     C    0.30238   0.41522   0.98000   1.000
    C94     C    0.30237   0.91522   0.48500   1.000
    C95     C    0.30236   0.91522   0.98499   1.000
    C96     C    0.80297   0.41530   0.48480   1.000
    C97     C    0.80297   0.41530   0.98480   1.000
    C98     C    0.80297   0.91529   0.48480   1.000
    C99     C    0.80297   0.91529   0.98480   1.000
    C100    C    0.26117   0.41323   0.35530   1.000
    C101    C    0.26117   0.41323   0.85530   1.000
    C102    C    0.26117   0.91322   0.35530   1.000
    C103    C    0.26116   0.91322   0.85530   1.000
    C104    C    0.76122   0.41327   0.35516   1.000
    C105    C    0.76121   0.41326   0.85516   1.000
    C106    C    0.76122   0.91326   0.35510   1.000
    C107    C    0.76121   0.91326   0.85516   1.000
    O108    O    0.20457   0.38018   0.16374   1.000
    O109    O    0.20456   0.38018   0.66374   1.000
    O110    O    0.20456   0.88017   0.16374   1.000
    O111    O    0.20456   0.88017   0.66374   1.000
    O112    O    0.70778   0.37992   0.16405   1.000
    C113    C    0.12784   0.28823   0.34040   1.000
    C114    C    0.12784   0.28823   0.84040   1.000
    C115    C    0.12784   0.78823   0.34040   1.000
    C116    C    0.12784   0.78823   0.84040   1.000
    C117    C    0.62793   0.28826   0.34060   1.000
    C118    C    0.62792   0.28826   0.84060   1.000
    C119    C    0.62793   0.78826   0.34060   1.000
    C120    C    0.62792   0.78826   0.84060   1.000
    C121    C    0.17445   0.33933   0.10320   1.000
    C122    C    0.17445   0.33933   0.60319   1.000
    C123    C    0.17444   0.83933   0.10319   1.000
    C124    C    0.17444   0.83933   0.60319   1.000
    C125    C    0.67613   0.33949   0.10355   1.000
    C126    C    0.67613   0.33949   0.60355   1.000
    C127    C    0.67611   0.83950   0.10355   1.000
    C128    C    0.67610   0.83949   0.60355   1.000
    C129    C    0.25427   0.11470   0.08133   1.000
    C130    C    0.25427   0.11470   0.58133   1.000
    C131    C    0.25428   0.61470   0.08133   1.000
    C132    C    0.25427   0.61470   0.58133   1.000
    C133    C    0.75421   0.11470   0.08122   1.000
    C134    C    0.75421   0.11470   0.58122   1.000
    C135    C    0.75421   0.61471   0.08120   1.000
    C136    C    0.75420   0.61470   0.58121   1.000
    C137    C    0.32875   0.16567   0.08822   1.000
    C138    C    0.32875   0.16567   0.58822   1.000
    C139    C    0.32875   0.66568   0.08822   1.000
    C140    C    0.32874   0.66567   0.58822   1.000
    C141    C    0.82865   0.16571   0.08815   1.000
    C142    C    0.82865   0.16571   0.58815   1.000
    C143    C    0.82864   0.66572   0.08814   1.000
    C144    C    0.82864   0.66571   0.58814   1.000
    C145    C    0.35188   0.17966   0.02803   1.000
    C146    C    0.35188   0.17965   0.52803   1.000
    C147    C    0.35188   0.67966   0.02803   1.000
    C148    C    0.35188   0.67966   0.52803   1.000
    C149    C    0.85185   0.17969   0.02798   1.000
    C150    C    0.85185   0.17969   0.52790   1.000
    C151    C    0.85184   0.67969   0.02790   1.000
    C152    C    0.85184   0.67969   0.52790   1.000
    C153    C    0.30006   0.14513   0.46059   1.000
    C154    C    0.30005   0.14513   0.96059   1.000
    C155    C    0.30006   0.64513   0.46059   1.000
    C156    C    0.30006   0.64513   0.96050   1.000
    C157    C    0.80007   0.14515   0.46053   1.000
    C158    C    0.80007   0.14515   0.96053   1.000
    C159    C    0.80006   0.64515   0.46052   1.000
    C160    C    0.80006   0.64515   0.96052   1.000
    C161    C    0.22077   0.10027   0.45438   1.000
    C162    C    0.22077   0.10027   0.95438   1.000
    C163    C    0.22077   0.60027   0.45438   1.000
    C164    C    0.22078   0.60027   0.95430   1.000
    C165    C    0.72082   0.10024   0.45428   1.000
    C166    C    0.72082   0.10024   0.95428   1.000
    C167    C    0.72081   0.60024   0.45427   1.000
    C168    C    0.72081   0.60024   0.95427   1.000
    C169    C    0.19835   0.08476   0.01430   1.000
    C170    C    0.19836   0.08475   0.51433   1.000
    C171    C    0.19836   0.58476   0.01433   1.000
    C172    C    0.19836   0.58475   0.51433   1.000
    C173    C    0.69835   0.08473   0.01422   1.000
    C174    C    0.69835   0.08472   0.51422   1.000
    C175    C    0.69834   0.58473   0.01421   1.000
    C176    C    0.69834   0.58473   0.51421   1.000
    C177    C    0.23911   0.08684   0.14395   1.000
    C178    C    0.23911   0.08684   0.64395   1.000
    C179    C    0.23911   0.58684   0.14395   1.000
    C180    C    0.23911   0.58684   0.64394   1.000
    C181    C    0.73908   0.08687   0.14385   1.000
    C182    C    0.73908   0.08686   0.64386   1.000
    C183    C    0.73907   0.58687   0.14385   1.000
    C184    C    0.37263   0.71179   0.65906   1.000
    C185    C    0.87252   0.21180   0.15901   1.000
    C186    C    0.87251   0.21179   0.65901   1.000
    C187    C    0.87252   0.71179   0.15900   1.000
    C188    C    0.87251   0.71179   0.65900   1.000
    C189    C    0.32610   0.16076   0.39624   1.000
    C190    C    0.32610   0.16076   0.89620   1.000
    C191    C    0.32610   0.66076   0.39624   1.000
    C192    C    0.32610   0.66076   0.89623   1.000
    C193    C    0.82617   0.16077   0.39620   1.000
    C194    C    0.82617   0.16076   0.89619   1.000
    C195    C    0.82617   0.66076   0.39619   1.000
    C196    C    0.82617   0.66076   0.89619   1.000
    O197    O    0.34116   0.39688   0.33418   1.000
    O198    O    0.34116   0.39688   0.83418   1.000
    O199    O    0.34117   0.89688   0.33418   1.000
    O200    O    0.34116   0.89688   0.83410   1.000
    O201    O    0.84122   0.39696   0.33402   1.000
    O202    O    0.84121   0.39696   0.83402   1.000
    O203    O    0.84122   0.89696   0.33402   1.000
    O204    O    0.84122   0.89695   0.83402   1.000
    O205    O    0.19260   0.45926   0.32818   1.000
    O206    O    0.19260   0.45926   0.82810   1.000
    O207    O    0.19260   0.95925   0.32817   1.000
    O208    O    0.19259   0.95925   0.82817   1.000
    O209    O    0.69264   0.45927   0.32804   1.000
    O210    O    0.69263   0.45927   0.82804   1.000
    O211    O    0.69264   0.95926   0.32800   1.000
    O212    O    0.69263   0.95926   0.82804   1.000
    O213    O    0.17965   0.28340   0.29437   1.000
    O214    O    0.17965   0.28340   0.79437   1.000
    O215    O    0.17966   0.78340   0.29437   1.000
    O216    O    0.17965   0.78339   0.79437   1.000
    O217    O    0.67952   0.28341   0.29440   1.000
    O218    O    0.67951   0.28340   0.79440   1.000
    O219    O    0.67952   0.78340   0.29442   1.000
    O220    O    0.67952   0.78340   0.79442   1.000
    O221    O    0.04998   0.25312   0.32830   1.000
    O222    O    0.04998   0.25311   0.82839   1.000
    O223    O    0.04998   0.75311   0.32837   1.000
    O224    O    0.04998   0.75311   0.82837   1.000
    O225    O    0.55011   0.25317   0.32885   1.000
    O226    O    0.55011   0.25317   0.82885   1.000
    O227    O    0.55011   0.75317   0.32884   1.000
    O228    O    0.55011   0.75317   0.82884   1.000
    O229    O    0.12154   0.28028   0.09104   1.000
    O230    O    0.12153   0.28028   0.59104   1.000
    O231    O    0.12152   0.78028   0.09103   1.000
    O232    O    0.12153   0.78028   0.59103   1.000
    O233    O    0.62222   0.28106   0.09157   1.000
    O234    O    0.62223   0.28105   0.59157   1.000
    O235    O    0.62218   0.78108   0.09157   1.000
    O236    O    0.62218   0.78108   0.59156   1.000
    O237    O    0.70778   0.37992   0.66405   1.000
    O238    O    0.70778   0.87991   0.16405   1.000
    O239    O    0.70778   0.87991   0.66405   1.000
    O240    O    0.15886   0.10316   0.16469   1.000
    O241    O    0.15886   0.10316   0.66400   1.000
    O242    O    0.15886   0.60316   0.16469   1.000
    O243    O    0.15885   0.60316   0.66469   1.000
    O244    O    0.65881   0.10315   0.16458   1.000
    O245    O    0.65880   0.10314   0.66458   1.000
    O246    O    0.65880   0.60315   0.16457   1.000
    O247    O    0.65879   0.60315   0.66457   1.000
    O248    O    0.30761   0.04090   0.17129   1.000
    O249    O    0.30761   0.04090   0.67129   1.000
    O250    O    0.30761   0.54090   0.17129   1.000
    O251    O    0.30760   0.54090   0.67129   1.000
    O252    O    0.80768   0.04102   0.17122   1.000
    O253    O    0.80767   0.04102   0.67122   1.000
    O254    O    0.80767   0.54103   0.17121   1.000
    O255    O    0.80766   0.54102   0.67121   1.000
    O256    O    0.32066   0.21661   0.20499   1.000
    O257    O    0.32065   0.21660   0.70499   1.000
    O258    O    0.32066   0.71661   0.20499   1.000
    O259    O    0.32065   0.71660   0.70499   1.000
    O260    O    0.82060   0.21652   0.20497   1.000
    O261    O    0.82060   0.21652   0.70497   1.000
    O262    O    0.82060   0.71652   0.20496   1.000
    O263    O    0.82060   0.71652   0.70496   1.000
    O264    O    0.45054   0.24691   0.17123   1.000
    O265    O    0.45054   0.24691   0.67123   1.000
    O266    O    0.45054   0.74691   0.17123   1.000
    O267    O    0.45053   0.74691   0.67123   1.000
    O268    O    0.95035   0.24698   0.17116   1.000
    O269    O    0.95035   0.24697   0.67116   1.000
    O270    O    0.95035   0.74698   0.17114   1.000
    O271    O    0.95035   0.74697   0.67114   1.000
    O272    O    0.37896   0.21983   0.40830   1.000
    O273    O    0.37896   0.21982   0.90831   1.000
    O274    O    0.37897   0.71982   0.40831   1.000
    O275    O    0.37897   0.71982   0.90831   1.000
    O276    O    0.87899   0.21986   0.40827   1.000
    O277    O    0.87899   0.21985   0.90827   1.000
    O278    O    0.87899   0.71985   0.40826   1.000
    O279    O    0.87899   0.71985   0.90826   1.000
    O280    O    0.29574   0.11989   0.33574   1.000
    O281    O    0.29574   0.11989   0.83574   1.000
    O282    O    0.29574   0.61989   0.33574   1.000
    O283    O    0.29574   0.61988   0.83574   1.000
    O284    O    0.79583   0.11988   0.33570   1.000
    O285    O    0.79583   0.11988   0.83570   1.000
    O286    O    0.79583   0.61988   0.33570   1.000
    O287    O    0.79583   0.61987   0.83500   1.000
loop_
    _geom_bond_atom_site_label_1
    _geom_bond_atom_site_label_2
    _geom_bond_distance
    _geom_bond_site_symmetry_2
    _ccdc_geom_bond_type
    H46    C175      1.08947      .   S
    H44    C173      1.08947      .   S
    H40    C169      1.08958      .   S
    H42    C171      1.08945      .   S
    C175   C135      1.39520      .   S
    C175   C168      1.39619  1_554   S
    C173   C133      1.39534      .   S
    C173   C166      1.39620  1_554   S
    C169   C129      1.39594      .   S
    C169   C162      1.39547  1_554   S
    C171   C131      1.39549      .   S
    C171   C164      1.39757  1_554   S
    C151   H30       1.08841      .   S
    C151   C143      1.39623      .   S
    C151   C160      1.40252  1_554   S
    C149   H28       1.08876      .   S
    C149   C141      1.39488      .   S
    C149   C158      1.40355  1_554   S
    C147   H26       1.08877      .   S
    C147   C139      1.39488      .   S
    C147   C156      1.40487  1_554   S
    C145   H24       1.08876      .   S
    C145   C137      1.39486      .   S
    C145   C154      1.40354  1_554   S
    C74    C86       1.39882      .   S
    C74    C123      1.50523      .   S
    C74    C67       1.40372  1_554   S
    C72    C84       1.39885      .   S
    C72    C121      1.50523      .   S
    C72    C65       1.40373  1_554   S
    C80    C88       1.39879      .   S
    C80    C125      1.50482      .   S
    C80    C69       1.40349  1_554   S
    C82    C90       1.39879      .   S
    C82    C127      1.50484      .   S
    C82    C71       1.41379  1_554   S
    C88    H12       1.08646      .   S
    C88    C97       1.39619  1_554   S
    C90    H14       1.08674      .   S
    C90    C99       1.39621  1_554   S
    C86    H10       1.08667      .   S
    C86    C95       1.39662  1_554   S
    C84    H8        1.08670      .   S
    C84    C93       1.49196  1_554   S
    C135   C143      1.41213      .   S
    C135   C183      1.50341      .   S
    C133   C141      1.41220      .   S
    C133   C181      1.50300      .   S
    C131   C139      1.41229      .   S
    C131   C179      1.50318      .   S
    C129   C137      1.41230      .   S
    C129   C177      1.50318      .   S
    C143   C187      1.49197      .   S
    C141   C185      1.49198      .   S
    C139   C79       1.49200      .   S
    C137   C77       1.49201      .   S
    O231   C123      1.28871      .   S
    O229   C121      1.28871      .   S
    O235   C127      1.28881      .   S
    O233   C125      1.28880      .   S
    C123   O110      1.26508      .   S
    C121   O108      1.26494      .   S
    C125   O112      1.26491      .   S
    C127   O238      1.26487      .   S
    C181   O244      1.28018      .   S
    C181   O252      1.27640      .   S
    C183   O246      1.28008      .   S
    C183   O254      1.27633      .   S
    C177   O240      1.28008      .   S
    C177   O248      1.27648      .   S
    C179   O242      1.28012      .   S
    C179   O250      1.27648      .   S
    C187   O270      1.25927      .   S
    C187   O262      1.29251      .   S
    C185   O268      1.25925      .   S
    C185   O260      1.29255      .   S
    C77    O264      1.25937      .   S
    C77    O256      1.29252      .   S
    C79    O266      1.25937      .   S
    C79    O258      1.29252      .   S
    O213   C113      1.29238      .   S
    O215   C115      1.29246      .   S
    O217   C117      1.29289      .   S
    O219   C119      1.29261      .   S
    O211   C106      1.27606      .   S
    O209   C104      1.27621      .   S
    O207   C102      1.27651      .   S
    O205   C100      1.27642      .   S
    O221   C113      1.25900      .   S
    O223   C115      1.25919      .   S
    O227   C119      1.25914      .   S
    O225   C117      1.25915      .   S
    O201   C104      1.28076      .   S
    O203   C106      1.28016      .   S
    O197   C100      1.28050      .   S
    O199   C102      1.28053      .   S
    O284   C193      1.26514      .   S
    O286   C195      1.26500      .   S
    O280   C189      1.26507      .   S
    O282   C191      1.26508      .   S
    C113   C56       1.49216      .   S
    C115   C58       1.49214      .   S
    C117   C60       1.49226      .   S
    C119   C62       1.49223      .   S
    C106   C54       1.50423      .   S
    C104   C52       1.50312      .   S
    C100   C48       1.50362      .   S
    C102   C50       1.50358      .   S
    C195   O278      1.28867      .   S
    C195   C159      1.50451      .   S
    C193   O276      1.28867      .   S
    C193   C157      1.50450      .   S
    C191   O274      1.28870      .   S
    C191   C155      1.50460      .   S
    C189   O272      1.28872      .   S
    C189   C153      1.50461      .   S
    H38    C167      1.08647      .   S
    H36    C165      1.08647      .   S
    H34    C163      1.08666      .   S
    H32    C161      1.08652      .   S
    C58    C50       1.41235      .   S
    C58    C66       1.39465      .   S
    C56    C48       1.41234      .   S
    C56    C64       1.39480      .   S
    C60    C52       1.41226      .   S
    C60    C68       1.39476      .   S
    C62    C54       1.41228      .   S
    C62    C70       1.39461      .   S
    C54    C98       1.39561      .   S
    C52    C96       1.39562      .   S
    C48    C92       1.39557      .   S
    C50    C94       1.39556      .   S
    C167   C159      1.39869      .   S
    C167   C176      1.39626      .   S
    C165   C157      1.39870      .   S
    C165   C174      1.39625      .   S
    C163   C155      1.39865      .   S
    C163   C172      1.39611      .   S
    C161   C153      1.39867      .   S
    C161   C170      1.39610      .   S
    C159   C152      1.40247      .   S
    C157   C150      1.40233      .   S
    C155   C148      1.40351      .   S
    C153   C146      1.40351      .   S
    H2     C66       1.08871      .   S
    H0     C64       1.08872      .   S
    H6     C70       1.08862      .   S
    H4     C68       1.08871      .   S
    C66    C75       1.40368      .   S
    C64    C73       1.40235      .   S
    C70    C83       1.40359      .   S
    C68    C81       1.40345      .   S
    C96    H20       1.08947      .   S
    C96    C89       1.39625      .   S
    C98    H22       1.08948      .   S
    C98    C91       1.39628      .   S
    C92    H16       1.08963      .   S
    C92    C85       1.39647      .   S
    C94    H18       1.08951      .   S
    C94    C87       1.39650      .   S
    H47    C176      1.08947      .   S
    H45    C174      1.08948      .   S
    H41    C170      1.08945      .   S
    H43    C172      1.08946      .   S
    C176   C136      1.39533      .   S
    C174   C134      1.39533      .   S
    C172   C132      1.39548      .   S
    C170   C130      1.39548      .   S
    C150   H29       1.08837      .   S
    C150   C142      1.39644      .   S
    C152   H31       1.08842      .   S
    C152   C144      1.39624      .   S
    C146   H25       1.08872      .   S
    C146   C138      1.39488      .   S
    C148   H27       1.08871      .   S
    C148   C140      1.39490      .   S
    C73    C85       1.39846      .   S
    C73    C122      1.50673      .   S
    C75    C87       1.39883      .   S
    C75    C124      1.50523      .   S
    C81    C89       1.39879      .   S
    C81    C126      1.50483      .   S
    C83    C91       1.39879      .   S
    C83    C128      1.50484      .   S
    C91    H15       1.08659      .   S
    C89    H13       1.08660      .   S
    C85    H9        1.08669      .   S
    C87    H11       1.08668      .   S
    C136   C144      1.41221      .   S
    C136   C76       1.50316      .   S
    C134   C142      1.41219      .   S
    C134   C182      1.50317      .   S
    C132   C140      1.41229      .   S
    C132   C180      1.50301      .   S
    C130   C138      1.41231      .   S
    C130   C178      1.50315      .   S
    C144   C188      1.49197      .   S
    C142   C186      1.49199      .   S
    C140   C184      1.49200      .   S
    C138   C78       1.49201      .   S
    O232   C124      1.28872      .   S
    O230   C122      1.28875      .   S
    O236   C128      1.28879      .   S
    O234   C126      1.28881      .   S
    C124   O111      1.26508      .   S
    C122   O109      1.26510      .   S
    C126   O237      1.26491      .   S
    C128   O239      1.26486      .   S
    C76    O247      1.28010      .   S
    C76    O255      1.27635      .   S
    C182   O245      1.28009      .   S
    C182   O253      1.27636      .   S
    C180   O243      1.28020      .   S
    C180   O251      1.27653      .   S
    C178   O241      1.27329      .   S
    C178   O249      1.27647      .   S
    C188   O271      1.25927      .   S
    C188   O263      1.29251      .   S
    C186   O269      1.25927      .   S
    C186   O261      1.29255      .   S
    C184   O267      1.25938      .   S
    C184   O259      1.29252      .   S
    C78    O265      1.25939      .   S
    C78    O257      1.29254      .   S
    O214   C114      1.29237      .   S
    O216   C116      1.29244      .   S
    O218   C118      1.29289      .   S
    O220   C120      1.29260      .   S
    O212   C107      1.27621      .   S
    O210   C105      1.27620      .   S
    O206   C101      1.27700      .   S
    O208   C103      1.27650      .   S
    O224   C116      1.25920      .   S
    O222   C114      1.25922      .   S
    O228   C120      1.25914      .   S
    O226   C118      1.25915      .   S
    O204   C107      1.28077      .   S
    O202   C105      1.28078      .   S
    O200   C103      1.28134      .   S
    O198   C101      1.28051      .   S
    O287   C196      1.27550      .   S
    O285   C194      1.26497      .   S
    O283   C192      1.26494      .   S
    O281   C190      1.26446      .   S
    C116   C59       1.49214      .   S
    C114   C57       1.49217      .   S
    C120   C63       1.49223      .   S
    C118   C61       1.49225      .   S
    C105   C53       1.50314      .   S
    C107   C55       1.50312      .   S
    C101   C49       1.50363      .   S
    C103   C51       1.50323      .   S
    C196   O279      1.28867      .   S
    C196   C160      1.50453      .   S
    C194   O277      1.28866      .   S
    C194   C158      1.50470      .   S
    C190   O273      1.28861      .   S
    C190   C154      1.50537      .   S
    C192   O275      1.28866      .   S
    C192   C156      1.50308      .   S
    H39    C168      1.08778      .   S
    H37    C166      1.08662      .   S
    H35    C164      1.08549      .   S
    H33    C162      1.08667      .   S
    C57    C49       1.41233      .   S
    C57    C65       1.39479      .   S
    C59    C51       1.41243      .   S
    C59    C67       1.39463      .   S
    C63    C55       1.41227      .   S
    C63    C71       1.38140      .   S
    C61    C53       1.41225      .   S
    C61    C69       1.39475      .   S
    C55    C99       1.39562      .   S
    C53    C97       1.39563      .   S
    C51    C95       1.39571      .   S
    C49    C93       1.32378      .   S
    C168   C160      1.39869      .   S
    C166   C158      1.39869      .   S
    C164   C156      1.39871      .   S
    C162   C154      1.39867      .   S
    H3     C67       1.08871      .   S
    H1     C65       1.08871      .   S
    H7     C71       1.09194      .   S
    H5     C69       1.08871      .   S
    C93    H17       1.07216      .   S
    C97    H21       1.08961      .   S
    C99    H23       1.08948      .   S
    C95    H19       1.08959      .   S
