# CIF file generated by openbabel 2.4.90, see http://openbabel.sf.net
data_I
_chemical_name_common ''
_cell_length_a 14.039
_cell_length_b 17.601
_cell_length_c 19.954
_cell_angle_alpha 102.064
_cell_angle_beta 104.579
_cell_angle_gamma 83.83
_space_group_name_H-M_alt 'P 1'
_space_group_name_Hall 'P 1'
loop_
    _symmetry_equiv_pos_as_xyz
    x,y,z
loop_
    _atom_site_label
    _atom_site_type_symbol
    _atom_site_fract_x
    _atom_site_fract_y
    _atom_site_fract_z
    _atom_site_occupancy
    Zr0     Zr   0.38456   0.26501   0.31584   1.000
    Zr1     Zr   0.38456   0.26500   0.81584   1.000
    Zr2     Zr   0.38456   0.76501   0.31584   1.000
    Zr3     Zr   0.38456   0.76500   0.81584   1.000
    Zr4     Zr   0.88451   0.26507   0.31578   1.000
    Zr5     Zr   0.88451   0.26507   0.81578   1.000
    Zr6     Zr   0.88452   0.76507   0.31577   1.000
    Zr7     Zr   0.88451   0.76507   0.81577   1.000
    Zr8     Zr   0.11580   0.23508   0.18348   1.000
    Zr9     Zr   0.11580   0.23508   0.68348   1.000
    Zr10    Zr   0.11580   0.73508   0.18348   1.000
    Zr11    Zr   0.11580   0.73508   0.68348   1.000
    Zr12    Zr   0.61607   0.23504   0.18349   1.000
    Zr13    Zr   0.61606   0.23504   0.68340   1.000
    Zr14    Zr   0.61606   0.73504   0.18348   1.000
    Zr15    Zr   0.61606   0.73504   0.68348   1.000
    Zr16    Zr   0.25018   0.99998   0.24967   1.000
    Zr17    Zr   0.25018   0.99998   0.74968   1.000
    Zr18    Zr   0.25018   0.49998   0.24968   1.000
    Zr19    Zr   0.25018   0.49997   0.74968   1.000
    Zr20    Zr   0.75098   0.99986   0.24977   1.000
    Zr21    Zr   0.75097   0.99986   0.74977   1.000
    Zr22    Zr   0.75098   0.49986   0.24976   1.000
    Zr23    Zr   0.75097   0.49985   0.74976   1.000
    N24     N    0.79049   0.64110   0.04025   1.000
    O25     O    0.71396   0.65510   0.10714   1.000
    O26     O    0.78195   0.60048   0.91632   1.000
    O27     O    0.83612   0.69178   0.95113   1.000
    O28     O    0.78491   0.58077   0.12537   1.000
    O29     O    0.82153   0.69095   0.15031   1.000
    O30     O    0.91179   0.69106   0.10878   1.000
    N31     N    0.71073   0.35903   0.95908   1.000
    O32     O    0.78679   0.34502   0.89199   1.000
    O33     O    0.72005   0.39946   0.08299   1.000
    O34     O    0.66494   0.30854   0.04831   1.000
    O35     O    0.58903   0.30906   0.89071   1.000
    O36     O    0.71626   0.41930   0.87399   1.000
    O37     O    0.67926   0.30913   0.84899   1.000
    N38     N    0.71072   0.85903   0.95905   1.000
    O39     O    0.58903   0.80906   0.89069   1.000
    O40     O    0.67926   0.80912   0.84900   1.000
    O41     O    0.66492   0.80854   0.04829   1.000
    O42     O    0.71626   0.91929   0.87398   1.000
    O43     O    0.78679   0.84502   0.89197   1.000
    O44     O    0.72005   0.89946   0.08298   1.000
    N45     N    0.71073   0.35903   0.45909   1.000
    O46     O    0.58903   0.30906   0.39071   1.000
    O47     O    0.66494   0.30854   0.54829   1.000
    O48     O    0.67926   0.30913   0.34901   1.000
    O49     O    0.72005   0.39946   0.58299   1.000
    O50     O    0.71627   0.41930   0.37399   1.000
    O51     O    0.78680   0.34502   0.39199   1.000
    N52     N    0.79049   0.64110   0.54030   1.000
    O53     O    0.78195   0.60048   0.41651   1.000
    O54     O    0.82152   0.69095   0.65033   1.000
    O55     O    0.78490   0.58077   0.62539   1.000
    O56     O    0.91178   0.69106   0.60880   1.000
    O57     O    0.83612   0.69178   0.45116   1.000
    O58     O    0.71396   0.65510   0.60716   1.000
    N59     N    0.29051   0.64109   0.54038   1.000
    O60     O    0.28174   0.60051   0.41655   1.000
    O61     O    0.41190   0.69103   0.60887   1.000
    O62     O    0.32156   0.69095   0.65040   1.000
    O63     O    0.21392   0.65510   0.60723   1.000
    O64     O    0.28470   0.58076   0.62543   1.000
    O65     O    0.33614   0.69175   0.45123   1.000
    N66     N    0.21005   0.35894   0.95872   1.000
    O67     O    0.17888   0.30909   0.84882   1.000
    O68     O    0.21871   0.39951   0.08272   1.000
    O69     O    0.16436   0.30831   0.04799   1.000
    O70     O    0.08865   0.30902   0.89040   1.000
    O71     O    0.28645   0.34494   0.89187   1.000
    O72     O    0.21572   0.41928   0.87381   1.000
    N73     N    0.21004   0.85894   0.45900   1.000
    O74     O    0.17889   0.80909   0.34896   1.000
    O75     O    0.21871   0.89951   0.58285   1.000
    O76     O    0.08865   0.80902   0.39053   1.000
    O77     O    0.28645   0.84494   0.39200   1.000
    O78     O    0.16435   0.80831   0.54813   1.000
    O79     O    0.21572   0.91928   0.37396   1.000
    N80     N    0.79050   0.14110   0.04031   1.000
    O81     O    0.71397   0.15510   0.10717   1.000
    O82     O    0.91179   0.19107   0.10881   1.000
    O83     O    0.82153   0.19095   0.15034   1.000
    O84     O    0.78491   0.08077   0.12540   1.000
    O85     O    0.78195   0.10048   0.91652   1.000
    O86     O    0.83613   0.19178   0.95117   1.000
    N87     N    0.79050   0.14110   0.54031   1.000
    O88     O    0.78195   0.10049   0.41652   1.000
    O89     O    0.82153   0.19095   0.65034   1.000
    O90     O    0.83613   0.19178   0.45117   1.000
    O91     O    0.78491   0.08077   0.62540   1.000
    O92     O    0.71397   0.15509   0.60715   1.000
    O93     O    0.91179   0.19106   0.60881   1.000
    N94     N    0.29052   0.64109   0.04037   1.000
    O95     O    0.41191   0.69104   0.10886   1.000
    O96     O    0.28471   0.58077   0.12543   1.000
    O97     O    0.28174   0.60051   0.91654   1.000
    O98     O    0.32156   0.69095   0.15039   1.000
    O99     O    0.33614   0.69175   0.95122   1.000
    O100    O    0.21392   0.65511   0.10723   1.000
    N101    N    0.21004   0.85894   0.95899   1.000
    O102    O    0.28645   0.84494   0.89198   1.000
    O103    O    0.08864   0.80902   0.89053   1.000
    O104    O    0.21870   0.89951   0.08285   1.000
    O105    O    0.17888   0.80909   0.84896   1.000
    O106    O    0.16435   0.80831   0.04812   1.000
    O107    O    0.21571   0.91928   0.87396   1.000
    N108    N    0.21005   0.35895   0.45899   1.000
    O109    O    0.21572   0.41928   0.37396   1.000
    O110    O    0.17889   0.30909   0.34896   1.000
    O111    O    0.16436   0.30831   0.54813   1.000
    O112    O    0.21871   0.39951   0.58285   1.000
    O113    O    0.08865   0.30902   0.39052   1.000
    O114    O    0.28646   0.34495   0.39200   1.000
    N115    N    0.71072   0.85903   0.45908   1.000
    O116    O    0.78680   0.84502   0.39199   1.000
    O117    O    0.67926   0.80913   0.34901   1.000
    O118    O    0.71627   0.91929   0.37398   1.000
    O119    O    0.66492   0.80854   0.54830   1.000
    O120    O    0.58903   0.80906   0.39071   1.000
    O121    O    0.72005   0.89946   0.58299   1.000
    N122    N    0.29051   0.14109   0.04038   1.000
    O123    O    0.28470   0.08077   0.12543   1.000
    O124    O    0.21392   0.15511   0.10723   1.000
    O125    O    0.28173   0.10051   0.91654   1.000
    O126    O    0.41191   0.19104   0.10887   1.000
    O127    O    0.33614   0.19175   0.95123   1.000
    O128    O    0.32156   0.19095   0.15040   1.000
    N129    N    0.29051   0.14109   0.54034   1.000
    O130    O    0.32156   0.19095   0.65038   1.000
    O131    O    0.21392   0.15511   0.60704   1.000
    O132    O    0.28470   0.08077   0.62541   1.000
    O133    O    0.28174   0.10051   0.41652   1.000
    O134    O    0.41191   0.19103   0.60883   1.000
    O135    O    0.33614   0.19175   0.45121   1.000
loop_
    _geom_bond_atom_site_label_1
    _geom_bond_atom_site_label_2
    _geom_bond_distance
    _geom_bond_site_symmetry_2
    _ccdc_geom_bond_type
    N24    O25       1.87723      .   S
    Zr14   O25       2.43552      .   S
    N24    O26       2.40236  1_554   S
    Zr23   O26       3.36881      .   S
    N24    O27       2.39323  1_554   S
    Zr7    O27       3.46258      .   S
    N24    O28       2.20390      .   S
    Zr22   O28       3.26112      .   S
    N24    O29       2.13949      .   S
    Zr6    O29       3.21906      .   S
    N24    O30       2.04689      .   S
    Zr10   O30       2.97833  1_455   S
    N31    O32       1.87580      .   S
    Zr5    O32       2.43220      .   S
    N31    O33       2.39968  1_556   S
    Zr22   O33       3.37104      .   S
    N31    O34       2.39439  1_556   S
    Zr12   O34       3.46434      .   S
    N31    O35       2.04983      .   S
    Zr1    O35       2.98476      .   S
    N31    O36       2.20252      .   S
    Zr23   O36       3.25865      .   S
    N31    O37       2.14027      .   S
    Zr13   O37       3.22136      .   S
    N38    O39       2.04969      .   S
    Zr3    O39       2.98464      .   S
    N38    O40       2.13951      .   S
    Zr15   O40       3.22007      .   S
    N38    O41       2.39465  1_556   S
    Zr14   O41       3.46447      .   S
    N38    O42       2.20217      .   S
    Zr21   O42       3.25830      .   S
    N38    O43       1.87558      .   S
    Zr7    O43       2.43209      .   S
    N38    O44       2.40006  1_556   S
    Zr20   O44       3.37152      .   S
    N45    O46       2.04983      .   S
    Zr0    O46       2.98477      .   S
    N45    O47       2.39400      .   S
    Zr13   O47       3.46314      .   S
    N45    O48       2.13989      .   S
    Zr12   O48       3.22021      .   S
    N45    O49       2.39966      .   S
    Zr23   O49       3.37103      .   S
    N45    O50       2.20255      .   S
    Zr22   O50       3.25866      .   S
    N45    O51       1.87582      .   S
    Zr4    O51       2.43221      .   S
    N52    O53       2.39945      .   S
    Zr22   O53       3.37214      .   S
    N52    O54       2.13909      .   S
    Zr7    O54       3.21867      .   S
    N52    O55       2.20352      .   S
    Zr23   O55       3.26072      .   S
    N52    O56       2.04672      .   S
    Zr11   O56       2.97823  1_455   S
    N52    O57       2.39366      .   S
    Zr6    O57       3.46303      .   S
    N52    O58       1.87688      .   S
    Zr15   O58       2.43524      .   S
    N59    O60       2.39982      .   S
    Zr18   O60       3.37298      .   S
    N59    O61       2.04744      .   S
    Zr15   O61       2.97962      .   S
    N59    O62       2.13882      .   S
    Zr3    O62       3.21848      .   S
    N59    O63       1.87728      .   S
    Zr11   O63       2.43656      .   S
    N59    O64       2.20363      .   S
    Zr19   O64       3.26040      .   S
    N59    O65       2.39366      .   S
    Zr2    O65       3.46289      .   S
    N66    O67       2.13668      .   S
    Zr9    O67       3.21666      .   S
    N66    O68       2.40310  1_556   S
    Zr18   O68       3.37431      .   S
    N66    O69       2.39587  1_556   S
    Zr8    O69       3.46535      .   S
    N66    O70       2.04619      .   S
    Zr5    O70       2.97916  1_655   S
    N66    O71       1.87541      .   S
    Zr1    O71       2.43331      .   S
    N66    O72       2.20077      .   S
    Zr19   O72       3.25689      .   S
    N73    O74       2.13915      .   S
    Zr10   O74       3.21908      .   S
    N73    O75       2.40045      .   S
    Zr17   O75       3.37201      .   S
    N73    O76       2.04722      .   S
    Zr6    O76       2.97968  1_655   S
    N73    O77       1.87775      .   S
    Zr2    O77       2.43514      .   S
    N73    O78       2.39339      .   S
    Zr11   O78       3.46288      .   S
    N73    O79       2.20298      .   S
    Zr16   O79       3.25989      .   S
    N80    O81       1.87684      .   S
    Zr12   O81       2.43523      .   S
    N80    O82       2.04671      .   S
    Zr8    O82       2.97816  1_455   S
    N80    O83       2.13909      .   S
    Zr4    O83       3.21866      .   S
    N80    O84       2.20348      .   S
    Zr20   O84       3.26067  1_565   S
    N80    O85       2.39950  1_554   S
    Zr21   O85       3.37209  1_565   S
    N80    O86       2.39364  1_554   S
    Zr5    O86       3.46301      .   S
    N87    O88       2.39948      .   S
    Zr20   O88       3.37206  1_565   S
    N87    O89       2.13910      .   S
    Zr5    O89       3.21868      .   S
    N87    O90       2.39365      .   S
    Zr4    O90       3.46302      .   S
    N87    O91       2.20352      .   S
    Zr21   O91       3.26070  1_565   S
    N87    O92       1.87651      .   S
    Zr13   O92       2.43438      .   S
    N87    O93       2.04671      .   S
    Zr9    O93       2.97815  1_455   S
    N94    O95       2.04749      .   S
    Zr14   O95       2.97966      .   S
    N94    O96       2.20371      .   S
    Zr18   O96       3.26047      .   S
    N94    O97       2.39972  1_554   S
    Zr19   O97       3.37290      .   S
    N94    O98       2.13891      .   S
    Zr2    O98       3.21857      .   S
    N94    O99       2.39353  1_554   S
    Zr3    O99       3.46277      .   S
    N94    O100      1.87735      .   S
    Zr10   O100      2.43661      .   S
    N101   O102      1.87802      .   S
    Zr3    O102      2.43484      .   S
    N101   O103      2.04720      .   S
    Zr7    O103      2.97966  1_655   S
    N101   O104      2.40048  1_556   S
    Zr16   O104      3.37195      .   S
    N101   O105      2.13908      .   S
    Zr11   O105      3.21901      .   S
    N101   O106      2.39342  1_556   S
    Zr10   O106      3.46290      .   S
    N101   O107      2.20286      .   S
    Zr17   O107      3.25969      .   S
    N108   O109      2.20281      .   S
    Zr18   O109      3.25966      .   S
    N108   O110      2.13907      .   S
    Zr8    O110      3.21901      .   S
    N108   O111      2.39350      .   S
    Zr9    O111      3.46292      .   S
    N108   O112      2.40053      .   S
    Zr19   O112      3.37202      .   S
    N108   O113      2.04733      .   S
    Zr4    O113      2.97960  1_655   S
    N108   O114      1.87765      .   S
    Zr0    O114      2.43506      .   S
    N115   O116      1.87584      .   S
    Zr6    O116      2.43230      .   S
    N115   O117      2.13977      .   S
    Zr14   O117      3.22033      .   S
    N115   O118      2.20263      .   S
    Zr20   O118      3.25840      .   S
    N115   O119      2.39438      .   S
    Zr15   O119      3.46428      .   S
    N115   O120      2.04978      .   S
    Zr2    O120      2.98468      .   S
    N115   O121      2.39978      .   S
    Zr21   O121      3.37125      .   S
    N122   O123      2.20359      .   S
    Zr16   O123      3.26027  1_565   S
    N122   O124      1.87729      .   S
    Zr8    O124      2.43656      .   S
    N122   O125      2.39977  1_554   S
    Zr17   O125      3.37293  1_565   S
    N122   O126      2.04750      .   S
    Zr12   O126      2.97971      .   S
    N122   O127      2.39359  1_554   S
    Zr1    O127      3.46282      .   S
    N122   O128      2.13885      .   S
    Zr0    O128      3.21851      .   S
    N129   O130      2.13915      .   S
    Zr1    O130      3.21881      .   S
    N129   O131      1.87473      .   S
    Zr9    O131      2.43902      .   S
    N129   O132      2.20395      .   S
    Zr17   O132      3.26071  1_565   S
    N129   O133      2.39949      .   S
    Zr16   O133      3.37276  1_565   S
    N129   O134      2.04745      .   S
    Zr13   O134      2.97948      .   S
    N129   O135      2.39336      .   S
    Zr0    O135      3.46250      .   S
