# CIF file generated by openbabel 2.4.90, see http://openbabel.sf.net
data_I
_chemical_name_common ''
_cell_length_a 18.434
_cell_length_b 18.423
_cell_length_c 18.421
_cell_angle_alpha 60.161
_cell_angle_beta 60.179
_cell_angle_gamma 60.182
_space_group_name_H-M_alt 'P 1'
_space_group_name_Hall 'P 1'
loop_
    _symmetry_equiv_pos_as_xyz
    x,y,z
loop_
    _atom_site_label
    _atom_site_type_symbol
    _atom_site_fract_x
    _atom_site_fract_y
    _atom_site_fract_z
    _atom_site_occupancy
    H0      H    0.45124   0.45182   0.93198   1.000
    H1      H    0.45242   0.45214   0.16438   1.000
    H2      H    0.93203   0.16439   0.45150   1.000
    H3      H    0.16423   0.93177   0.45212   1.000
    H4      H    0.45172   0.93187   0.16400   1.000
    H5      H    0.45180   0.16438   0.93179   1.000
    H6      H    0.93220   0.45140   0.45144   1.000
    H7      H    0.16421   0.45242   0.45239   1.000
    H8      H    0.45242   0.16436   0.45215   1.000
    H9      H    0.45125   0.93203   0.45178   1.000
    H10     H    0.93204   0.45149   0.16440   1.000
    H11     H    0.16422   0.45216   0.93173   1.000
    H12     H    0.54874   0.54820   0.06801   1.000
    H13     H    0.54756   0.54789   0.83562   1.000
    H14     H    0.83575   0.06826   0.54787   1.000
    H15     H    0.06794   0.83564   0.54849   1.000
    H16     H    0.06794   0.54854   0.83560   1.000
    H17     H    0.83576   0.54786   0.06827   1.000
    H18     H    0.54874   0.06799   0.54822   1.000
    H19     H    0.54756   0.83566   0.54784   1.000
    H20     H    0.83577   0.54760   0.54761   1.000
    H21     H    0.06778   0.54862   0.54856   1.000
    H22     H    0.54826   0.06816   0.83560   1.000
    H23     H    0.54819   0.83564   0.06821   1.000
    C24     C    0.47298   0.47332   0.96101   1.000
    C25     C    0.47365   0.47349   0.09237   1.000
    C26     C    0.96102   0.09238   0.47312   1.000
    C27     C    0.09228   0.96088   0.47348   1.000
    C28     C    0.47326   0.96094   0.09238   1.000
    C29     C    0.47329   0.09238   0.96089   1.000
    C30     C    0.96114   0.47307   0.47300   1.000
    C31     C    0.09227   0.47365   0.47363   1.000
    C32     C    0.47365   0.09236   0.47349   1.000
    C33     C    0.47299   0.96105   0.47328   1.000
    C34     C    0.96103   0.47312   0.09238   1.000
    C35     C    0.09228   0.47351   0.96085   1.000
    C36     C    0.52699   0.52671   0.03898   1.000
    C37     C    0.52633   0.52654   0.90763   1.000
    C38     C    0.90770   0.03914   0.52652   1.000
    C39     C    0.03895   0.90765   0.52687   1.000
    C40     C    0.03895   0.52690   0.90762   1.000
    C41     C    0.90770   0.52651   0.03915   1.000
    C42     C    0.52699   0.03898   0.52672   1.000
    C43     C    0.52633   0.90766   0.52651   1.000
    C44     C    0.90771   0.52637   0.52637   1.000
    C45     C    0.03884   0.52694   0.52691   1.000
    C46     C    0.52673   0.03908   0.90762   1.000
    C47     C    0.52669   0.90765   0.03911   1.000
    C48     C    0.38896   0.38912   0.11110   1.000
    C49     C    0.44630   0.44644   0.05372   1.000
    C50     C    0.11099   0.11085   0.38880   1.000
    C51     C    0.05365   0.05357   0.44627   1.000
    C52     C    0.38873   0.11095   0.11090   1.000
    C53     C    0.44622   0.05363   0.05360   1.000
    C54     C    0.11118   0.38904   0.38900   1.000
    C55     C    0.05377   0.44636   0.44637   1.000
    C56     C    0.38895   0.11112   0.38911   1.000
    C57     C    0.44630   0.05374   0.44642   1.000
    C58     C    0.11100   0.38880   0.11083   1.000
    C59     C    0.05366   0.44628   0.05356   1.000
    C60     C    0.61102   0.61090   0.88889   1.000
    C61     C    0.55368   0.55359   0.94620   1.000
    C62     C    0.88899   0.88918   0.61120   1.000
    C63     C    0.94633   0.94646   0.55372   1.000
    C64     C    0.88898   0.61122   0.88916   1.000
    C65     C    0.94632   0.55375   0.94644   1.000
    C66     C    0.61103   0.88890   0.61088   1.000
    C67     C    0.55369   0.94629   0.55357   1.000
    C68     C    0.88880   0.61099   0.61095   1.000
    C69     C    0.94621   0.55365   0.55364   1.000
    C70     C    0.61125   0.88908   0.88910   1.000
    C71     C    0.55376   0.94640   0.94640   1.000
    O72     O    0.36663   0.36698   0.07147   1.000
    O73     O    0.36705   0.36711   0.19493   1.000
    O74     O    0.07147   0.19464   0.36652   1.000
    O75     O    0.19472   0.07123   0.36677   1.000
    O76     O    0.36654   0.07134   0.19471   1.000
    O77     O    0.36659   0.19475   0.07128   1.000
    O78     O    0.07164   0.36675   0.36670   1.000
    O79     O    0.19492   0.36712   0.36712   1.000
    O80     O    0.36706   0.19494   0.36710   1.000
    O81     O    0.36661   0.07150   0.36697   1.000
    O82     O    0.07147   0.36651   0.19464   1.000
    O83     O    0.19473   0.36678   0.07120   1.000
    O84     O    0.63335   0.63304   0.92850   1.000
    O85     O    0.63293   0.63292   0.80500   1.000
    O86     O    0.80526   0.92880   0.63322   1.000
    O87     O    0.92851   0.80538   0.63348   1.000
    O88     O    0.92851   0.63352   0.80535   1.000
    O89     O    0.80525   0.63324   0.92880   1.000
    O90     O    0.63336   0.92852   0.63303   1.000
    O91     O    0.63292   0.80509   0.63290   1.000
    O92     O    0.80506   0.63290   0.63288   1.000
    O93     O    0.92834   0.63328   0.63323   1.000
    O94     O    0.63344   0.92868   0.80528   1.000
    O95     O    0.63339   0.80528   0.92872   1.000
loop_
    _geom_bond_atom_site_label_1
    _geom_bond_atom_site_label_2
    _geom_bond_distance
    _geom_bond_site_symmetry_2
    _ccdc_geom_bond_type
    C36    H12       1.08862      .   S
    C36    C25       1.39040      .   S
    C36    C61       1.40431  1_554   S
    C47    H23       1.08858      .   S
    C47    C28       1.39027      .   S
    C47    C71       1.40310  1_554   S
    C41    H17       1.08859      .   S
    C41    C34       1.39020      .   S
    C41    C65       1.40302  1_554   S
    C59    C34       1.40329  1_455   S
    C59    C58       1.49522      .   S
    C59    C35       1.40302  1_554   S
    C53    C28       1.40299  1_545   S
    C53    C52       1.49533      .   S
    C53    C29       1.40310  1_554   S
    C49    C25       1.40331      .   S
    C49    C48       1.49586      .   S
    C49    C24       1.40319  1_554   S
    O83    C58       1.27716      .   S
    O77    C52       1.27713      .   S
    O72    C48       1.27704      .   S
    C25    H1        1.08859      .   S
    C34    H10       1.08858      .   S
    C28    H4        1.08278      .   S
    C58    O82       1.27706      .   S
    C52    O76       1.27708      .   S
    C48    O73       1.27735      .   S
    O74    C50       1.27706      .   S
    O78    C54       1.27739      .   S
    O75    C50       1.27715      .   S
    O81    C56       1.27702      .   S
    O80    C56       1.27731      .   S
    O79    C54       1.27745      .   S
    C50    C51       1.49531      .   S
    C54    C55       1.49635      .   S
    C56    C57       1.49585      .   S
    C51    C26       1.40329  1_455   S
    C51    C27       1.40295  1_545   S
    C55    C30       1.40359  1_455   S
    C55    C31       1.40324      .   S
    C57    C33       1.40309  1_545   S
    C57    C32       1.40332      .   S
    H6     C30       1.08724      .   S
    H2     C26       1.08857      .   S
    H9     C33       1.08859      .   S
    H3     C27       1.08860      .   S
    H8     C32       1.08859      .   S
    H7     C31       1.08863      .   S
    C30    C44       1.39156      .   S
    C26    C38       1.39022      .   S
    C33    C43       1.39040      .   S
    C27    C39       1.39023      .   S
    C32    C42       1.39040      .   S
    C31    C45       1.39040      .   S
    C44    H20       1.08863      .   S
    C44    C69       1.40330      .   S
    C43    H19       1.08861      .   S
    C43    C67       1.40316      .   S
    C38    H14       1.08861      .   S
    C38    C63       1.40293  1_545   S
    C42    H18       1.08861      .   S
    C42    C67       1.40310  1_545   S
    C39    H15       1.08857      .   S
    C39    C63       1.40329  1_455   S
    C45    H21       1.08857      .   S
    C45    C69       1.40347  1_455   S
    C67    C66       1.49581      .   S
    C69    C68       1.49577      .   S
    C63    C62       1.49531      .   S
    C66    O91       1.27728      .   S
    C66    O90       1.27716      .   S
    C68    O92       1.27732      .   S
    C68    O93       1.27708      .   S
    C62    O86       1.27715      .   S
    C62    O87       1.27707      .   S
    O85    C60       1.27833      .   S
    O94    C70       1.27722      .   S
    O88    C64       1.27706      .   S
    H16    C40       1.08858      .   S
    H22    C46       1.08861      .   S
    H13    C37       1.08859      .   S
    C60    O84       1.27673      .   S
    C60    C61       1.49584      .   S
    C70    O95       1.27713      .   S
    C70    C71       1.49533      .   S
    C64    O89       1.27718      .   S
    C64    C65       1.49535      .   S
    C40    C65       1.40329  1_455   S
    C40    C35       1.39020      .   S
    C46    C71       1.40300  1_545   S
    C46    C29       1.39025      .   S
    C37    C61       1.40203      .   S
    C37    C24       1.39040      .   S
    H11    C35       1.08859      .   S
    H5     C29       1.08858      .   S
    H0     C24       1.08862      .   S
