# CIF file generated by openbabel 2.4.90, see http://openbabel.sf.net
data_I
_chemical_name_common ''
_cell_length_a 18.434
_cell_length_b 18.423
_cell_length_c 18.421
_cell_angle_alpha 60.161
_cell_angle_beta 60.179
_cell_angle_gamma 60.182
_space_group_name_H-M_alt 'P 1'
_space_group_name_Hall 'P 1'
loop_
    _symmetry_equiv_pos_as_xyz
    x,y,z
loop_
    _atom_site_label
    _atom_site_type_symbol
    _atom_site_fract_x
    _atom_site_fract_y
    _atom_site_fract_z
    _atom_site_occupancy
    N0      N    0.49999   0.00001   0.50000   1.000
    N1      N    0.99999   0.50001   1.00000   1.000
    N2      N    0.49999   0.50001   0.99999   1.000
    N3      N    0.99999   0.00001   0.50000   1.000
    N4      N    0.99999   0.50001   0.49999   1.000
    N5      N    0.49999   0.00001   0.99997   1.000
    Zr6     Zr   0.74999   0.75004   0.75002   1.000
    Zr7     Zr   0.23907   0.23905   0.22653   1.000
    O8      O    0.32702   0.32708   0.13713   1.000
    O9      O    0.14345   0.32703   0.32076   1.000
    O10     O    0.32702   0.14341   0.32081   1.000
    Zr11    Zr   0.29364   0.29372   0.29370   1.000
    O12     O    0.35440   0.35446   0.20793   1.000
    O13     O    0.20788   0.35447   0.35445   1.000
    O14     O    0.35440   0.20794   0.35445   1.000
    O15     O    0.16198   0.16195   0.32076   1.000
    O16     O    0.32701   0.16197   0.15569   1.000
    O17     O    0.16198   0.32703   0.15568   1.000
    O18     O    0.66745   0.66745   0.83252   1.000
    O19     O    0.83254   0.83261   0.66751   1.000
    O20     O    0.83250   0.66747   0.66745   1.000
    O21     O    0.66751   0.83259   0.83257   1.000
    O22     O    0.66745   0.83255   0.66744   1.000
    O23     O    0.83254   0.66753   0.83260   1.000
loop_
    _geom_bond_atom_site_label_1
    _geom_bond_atom_site_label_2
    _geom_bond_distance
    _geom_bond_site_symmetry_2
    _ccdc_geom_bond_type
    Zr7    O8        2.29606      .   S
    N2     O8        4.55858  1_556   S
    Zr7    O9        2.37957      .   S
    N4     O9        4.63187  1_655   S
    Zr7    O10       2.37973      .   S
    N0     O10       4.63191      .   S
    Zr11   O12       1.65243      .   S
    N2     O12       3.97195  1_556   S
    Zr11   O13       1.65262      .   S
    N4     O13       3.97235  1_655   S
    Zr11   O14       1.65252      .   S
    N0     O14       3.97208      .   S
    Zr7    O15       2.03739      .   S
    N3     O15       4.23909  1_655   S
    Zr7    O16       1.94899      .   S
    N5     O16       4.15406  1_556   S
    Zr7    O17       1.94911      .   S
    N1     O17       4.15406  1_656   S
    Zr6    O18       2.15431      .   S
    N2     O18       4.36931      .   S
    Zr6    O19       2.15426      .   S
    N3     O19       4.36859  1_545   S
    Zr6    O20       2.15434      .   S
    N4     O20       4.36949      .   S
    Zr6    O21       2.15395      .   S
    N5     O21       4.36812  1_545   S
    Zr6    O22       2.15427      .   S
    N0     O22       4.36922  1_545   S
    Zr6    O23       2.15425      .   S
    N1     O23       4.36861      .   S
