# CIF file generated by openbabel 2.4.90, see http://openbabel.sf.net
data_I
_chemical_name_common ''
_cell_length_a 18.434
_cell_length_b 18.423
_cell_length_c 18.421
_cell_angle_alpha 60.161
_cell_angle_beta 60.179
_cell_angle_gamma 60.182
_space_group_name_H-M_alt 'P 1'
_space_group_name_Hall 'P 1'
loop_
    _symmetry_equiv_pos_as_xyz
    x,y,z
loop_
    _atom_site_label
    _atom_site_type_symbol
    _atom_site_fract_x
    _atom_site_fract_y
    _atom_site_fract_z
    _atom_site_occupancy
    Zr0     Zr   0.29328   0.29339   0.11949   1.000
    Zr1     Zr   0.29364   0.29372   0.29370   1.000
    Zr2     Zr   0.11969   0.29328   0.29328   1.000
    Zr3     Zr   0.29326   0.11953   0.29337   1.000
    Zr4     Zr   0.70670   0.70664   0.88051   1.000
    Zr5     Zr   0.70635   0.70631   0.70628   1.000
    Zr6     Zr   0.70671   0.88049   0.70660   1.000
    Zr7     Zr   0.88029   0.70675   0.70671   1.000
    Zr8     Zr   0.25006   0.25001   0.20000   1.000
    Zr9     Zr   0.74992   0.75001   0.75000   1.000
    O10     O    0.27167   0.27170   0.15974   1.000
    O11     O    0.18487   0.27165   0.24664   1.000
    O12     O    0.72832   0.81525   0.72830   1.000
    O13     O    0.81510   0.72838   0.72835   1.000
    O14     O    0.27166   0.18477   0.24669   1.000
    O15     O    0.72831   0.72832   0.81525   1.000
    O16     O    0.72813   0.72816   0.72814   1.000
    N17     N    0.49999   0.00001   0.50000   1.000
    O18     O    0.41496   0.04776   0.41508   1.000
    O19     O    0.58502   0.95226   0.58491   1.000
    O20     O    0.58481   0.87785   0.58479   1.000
    O21     O    0.41517   0.12217   0.41520   1.000
    N22     N    0.99999   0.50001   1.00000   1.000
    O23     O    0.04779   0.41495   0.12198   1.000
    O24     O    0.12200   0.41505   0.04767   1.000
    O25     O    0.95219   0.58507   0.87801   1.000
    O26     O    0.87798   0.58498   0.95233   1.000
    N27     N    0.49999   0.50001   0.99999   1.000
    O28     O    0.58501   0.58493   0.95225   1.000
    O29     O    0.58481   0.58481   0.87781   1.000
    O30     O    0.41497   0.41510   0.04773   1.000
    O31     O    0.41517   0.41521   0.12215   1.000
    N32     N    0.99999   0.00001   0.50000   1.000
    O33     O    0.87799   0.95233   0.58495   1.000
    O34     O    0.95220   0.87804   0.58505   1.000
    O35     O    0.04778   0.12199   0.41495   1.000
    O36     O    0.12199   0.04770   0.41503   1.000
    N37     N    0.99999   0.50001   0.49999   1.000
    O38     O    0.87785   0.58481   0.58478   1.000
    O39     O    0.95215   0.58501   0.58498   1.000
    O40     O    0.04783   0.41501   0.41499   1.000
    O41     O    0.12213   0.41521   0.41520   1.000
    N42     N    0.49999   0.00001   0.99997   1.000
    O43     O    0.41495   0.04772   0.12201   1.000
    O44     O    0.41496   0.12204   0.04768   1.000
    O45     O    0.58503   0.95230   0.87796   1.000
    O46     O    0.58502   0.87799   0.95229   1.000
loop_
    _geom_bond_atom_site_label_1
    _geom_bond_atom_site_label_2
    _geom_bond_distance
    _geom_bond_site_symmetry_2
    _ccdc_geom_bond_type
    Zr0    O10       0.66171      .   S
    Zr8    O10       0.66171      .   S
    Zr8    O11       1.08563      .   S
    Zr2    O11       1.08563      .   S
    Zr6    O12       0.98348      .   S
    Zr9    O12       0.98348      .   S
    Zr7    O13       0.98341      .   S
    Zr9    O13       0.98341      .   S
    Zr8    O14       1.08572      .   S
    Zr3    O14       1.08572      .   S
    Zr9    O15       0.98355      .   S
    Zr4    O15       0.98355      .   S
    Zr9    O16       0.98410      .   S
    Zr5    O16       0.98410      .   S
    N17    O18       2.31841      .   S
    Zr3    O18       3.30319      .   S
    N17    O19       2.31831  1_545   S
    Zr6    O19       3.30285      .   S
    N17    O20       2.31970  1_545   S
    Zr5    O20       3.30490      .   S
    N17    O21       2.31973      .   S
    Zr1    O21       3.30503      .   S
    N22    O23       2.31795  1_656   S
    Zr2    O23       3.30228      .   S
    N22    O24       2.31844  1_656   S
    Zr0    O24       3.30294      .   S
    N22    O25       2.31801      .   S
    Zr7    O25       3.30234      .   S
    N22    O26       2.31843      .   S
    Zr4    O26       3.30294      .   S
    N27    O28       2.31842      .   S
    Zr4    O28       3.30325      .   S
    N27    O29       2.31974      .   S
    Zr5    O29       3.30477      .   S
    N27    O30       2.31840  1_556   S
    Zr0    O30       3.30317      .   S
    N27    O31       2.31969  1_556   S
    Zr1    O31       3.30485      .   S
    N32    O33       2.31837  1_545   S
    Zr6    O33       3.30286      .   S
    N32    O34       2.31796  1_545   S
    Zr7    O34       3.30230      .   S
    N32    O35       2.31796  1_655   S
    Zr2    O35       3.30231      .   S
    N32    O36       2.31836  1_655   S
    Zr3    O36       3.30285      .   S
    N37    O38       2.32000      .   S
    Zr5    O38       3.30524      .   S
    N37    O39       2.31830      .   S
    Zr7    O39       3.30289      .   S
    N37    O40       2.31836  1_655   S
    Zr2    O40       3.30248      .   S
    N37    O41       2.31991  1_655   S
    Zr1    O41       3.30523      .   S
    N42    O43       2.31831  1_556   S
    Zr3    O43       3.30278      .   S
    N42    O44       2.31834  1_556   S
    Zr0    O44       3.30283      .   S
    N42    O45       2.31808  1_545   S
    Zr6    O45       3.30270      .   S
    N42    O46       2.31810  1_545   S
    Zr4    O46       3.30258      .   S
