# CIF file generated by openbabel 2.4.90, see http://openbabel.sf.net
data_I
_chemical_name_common ''
_cell_length_a 18.434
_cell_length_b 18.423
_cell_length_c 18.421
_cell_angle_alpha 60.161
_cell_angle_beta 60.179
_cell_angle_gamma 60.182
_space_group_name_H-M_alt 'P 1'
_space_group_name_Hall 'P 1'
loop_
    _symmetry_equiv_pos_as_xyz
    x,y,z
loop_
    _atom_site_label
    _atom_site_type_symbol
    _atom_site_fract_x
    _atom_site_fract_y
    _atom_site_fract_z
    _atom_site_occupancy
    N0      N    0.49999   0.00001   0.50000   1.000
    N1      N    0.99999   0.50001   1.00000   1.000
    N2      N    0.49999   0.50001   0.99999   1.000
    N3      N    0.99999   0.00001   0.50000   1.000
    N4      N    0.99999   0.50001   0.49999   1.000
    N5      N    0.49999   0.00001   0.99997   1.000
    Zr6     Zr   0.74999   0.75004   0.75002   1.000
    O7      O    0.85109   0.81404   0.66753   1.000
    O8      O    0.85107   0.66753   0.66750   1.000
    O9      O    0.85109   0.66756   0.81402   1.000
    O10     O    0.66750   0.66748   0.85113   1.000
    O11     O    0.66751   0.81401   0.85116   1.000
    O12     O    0.81399   0.66751   0.85117   1.000
    O13     O    0.66740   0.81395   0.66741   1.000
    O14     O    0.66740   0.66743   0.81392   1.000
    O15     O    0.81392   0.66742   0.66740   1.000
    O16     O    0.66750   0.85115   0.66746   1.000
    O17     O    0.81399   0.85118   0.66749   1.000
    O18     O    0.66751   0.85117   0.81399   1.000
    Zr19    Zr   0.23907   0.23905   0.22653   1.000
    O20     O    0.18054   0.32705   0.13710   1.000
    O21     O    0.32702   0.32708   0.13713   1.000
    O22     O    0.32702   0.18055   0.13711   1.000
    O23     O    0.14343   0.18052   0.32074   1.000
    O24     O    0.14345   0.32703   0.32076   1.000
    O25     O    0.14343   0.32700   0.17426   1.000
    O26     O    0.18053   0.14337   0.32078   1.000
    O27     O    0.32701   0.14339   0.17427   1.000
    O28     O    0.32702   0.14341   0.32081   1.000
    Zr29    Zr   0.29364   0.29372   0.29370   1.000
    O30     O    0.35440   0.35446   0.20793   1.000
    O31     O    0.20788   0.35447   0.35445   1.000
    O32     O    0.35440   0.20794   0.35445   1.000
loop_
    _geom_bond_atom_site_label_1
    _geom_bond_atom_site_label_2
    _geom_bond_distance
    _geom_bond_site_symmetry_2
    _ccdc_geom_bond_type
    Zr6    O7        2.18137      .   S
    N3     O7        4.38199  1_545   S
    Zr6    O8        2.18152      .   S
    N4     O8        4.38274      .   S
    Zr6    O9        2.18135      .   S
    N1     O9        4.38203      .   S
    Zr6    O10       2.18150      .   S
    N2     O10       4.38263      .   S
    Zr6    O11       2.18114      .   S
    N5     O11       4.38156  1_545   S
    Zr6    O12       2.18143      .   S
    N1     O12       4.38210      .   S
    Zr6    O13       2.18145      .   S
    N0     O13       4.38289  1_545   S
    Zr6    O14       2.18155      .   S
    N2     O14       4.38296      .   S
    Zr6    O15       2.18154      .   S
    N4     O15       4.38318      .   S
    Zr6    O16       2.18148      .   S
    N0     O16       4.38251  1_545   S
    Zr6    O17       2.18142      .   S
    N3     O17       4.38207  1_545   S
    Zr6    O18       2.18109      .   S
    N5     O18       4.38159  1_545   S
    Zr19   O20       1.96907      .   S
    N1     O20       4.17300  1_656   S
    Zr19   O21       2.29606      .   S
    N2     O21       4.55858  1_556   S
    Zr19   O22       1.96895      .   S
    N5     O22       4.17295  1_556   S
    Zr19   O23       2.06602      .   S
    N3     O23       4.25292  1_655   S
    Zr19   O24       2.37957      .   S
    N4     O24       4.63187  1_655   S
    Zr19   O25       1.98902      .   S
    N1     O25       4.16339  1_656   S
    Zr19   O26       2.06611      .   S
    N3     O26       4.25298  1_655   S
    Zr19   O27       1.98893      .   S
    N5     O27       4.16345  1_556   S
    Zr19   O28       2.37973      .   S
    N0     O28       4.63191      .   S
    Zr29   O30       1.65243      .   S
    N2     O30       3.97195  1_556   S
    Zr29   O31       1.65262      .   S
    N4     O31       3.97235  1_655   S
    Zr29   O32       1.65252      .   S
    N0     O32       3.97208      .   S
