# CIF file generated by openbabel 2.4.90, see http://openbabel.sf.net
data_I
_chemical_name_common ''
_cell_length_a 18.42
_cell_length_b 18.428
_cell_length_c 18.43
_cell_angle_alpha 60.169
_cell_angle_beta 60.182
_cell_angle_gamma 60.18
_space_group_name_H-M_alt 'P 1'
_space_group_name_Hall 'P 1'
loop_
    _symmetry_equiv_pos_as_xyz
    x,y,z
loop_
    _atom_site_label
    _atom_site_type_symbol
    _atom_site_fract_x
    _atom_site_fract_y
    _atom_site_fract_z
    _atom_site_occupancy
    C0      C    0.11097   0.38871   0.11090   1.000
    C1      C    0.38906   0.11132   0.38904   1.000
    C2      C    0.11096   0.11097   0.38870   1.000
    C3      C    0.38907   0.38904   0.11131   1.000
    C4      C    0.11122   0.38910   0.38908   1.000
    C5      C    0.38883   0.11091   0.11092   1.000
    C6      C    0.61119   0.88911   0.88904   1.000
    C7      C    0.88880   0.61092   0.61089   1.000
    C8      C    0.88905   0.88905   0.61126   1.000
    C9      C    0.61095   0.61097   0.88866   1.000
    C10     C    0.61096   0.88870   0.61093   1.000
    C11     C    0.88904   0.61131   0.88902   1.000
