# CIF file generated by openbabel 2.4.90, see http://openbabel.sf.net
data_I
_chemical_name_common ''
_cell_length_a 18.42
_cell_length_b 18.428
_cell_length_c 18.43
_cell_angle_alpha 60.169
_cell_angle_beta 60.182
_cell_angle_gamma 60.18
_space_group_name_H-M_alt 'P 1'
_space_group_name_Hall 'P 1'
loop_
    _symmetry_equiv_pos_as_xyz
    x,y,z
loop_
    _atom_site_label
    _atom_site_type_symbol
    _atom_site_fract_x
    _atom_site_fract_y
    _atom_site_fract_z
    _atom_site_occupancy
    Zr0     Zr   0.20663   0.38035   0.20677   1.000
    Zr1     Zr   0.38043   0.20662   0.20663   1.000
    Zr2     Zr   0.20633   0.20621   0.20622   1.000
    Zr3     Zr   0.20663   0.20677   0.38034   1.000
    Zr4     Zr   0.61959   0.79339   0.79334   1.000
    Zr5     Zr   0.79339   0.61966   0.79300   1.000
    Zr6     Zr   0.79369   0.79380   0.79375   1.000
    Zr7     Zr   0.79338   0.79324   0.61963   1.000
    Zr8     Zr   0.11097   0.38871   0.11090   1.000
    Zr9     Zr   0.38906   0.11132   0.38904   1.000
    Zr10    Zr   0.11096   0.11097   0.38870   1.000
    Zr11    Zr   0.38907   0.38904   0.11131   1.000
    Zr12    Zr   0.11122   0.38910   0.38908   1.000
    Zr13    Zr   0.38883   0.11091   0.11092   1.000
    Zr14    Zr   0.61119   0.88911   0.88904   1.000
    Zr15    Zr   0.88880   0.61092   0.61089   1.000
    Zr16    Zr   0.88905   0.88905   0.61126   1.000
    Zr17    Zr   0.61095   0.61097   0.88866   1.000
    Zr18    Zr   0.61096   0.88870   0.61093   1.000
    Zr19    Zr   0.88904   0.61131   0.88902   1.000
    Zr20    Zr   0.24994   0.24992   0.24992   1.000
    Zr21    Zr   0.75007   0.75009   0.75005   1.000
    Zr22    Zr   0.13315   0.42824   0.13335   1.000
    Zr23    Zr   0.42865   0.13333   0.30528   1.000
    Zr24    Zr   0.13300   0.30494   0.13273   1.000
    Zr25    Zr   0.30526   0.13358   0.42861   1.000
    Zr26    Zr   0.13300   0.13274   0.30494   1.000
    Zr27    Zr   0.42866   0.30527   0.13333   1.000
    Zr28    Zr   0.13315   0.13336   0.42823   1.000
    Zr29    Zr   0.30527   0.42862   0.13358   1.000
    Zr30    Zr   0.13334   0.30532   0.42865   1.000
    Zr31    Zr   0.42841   0.13318   0.13319   1.000
    Zr32    Zr   0.13335   0.42868   0.30531   1.000
    Zr33    Zr   0.30502   0.13283   0.13284   1.000
    Zr34    Zr   0.57161   0.86683   0.86678   1.000
    Zr35    Zr   0.86667   0.57134   0.69466   1.000
    Zr36    Zr   0.69500   0.86719   0.86712   1.000
    Zr37    Zr   0.86667   0.69469   0.57131   1.000
    Zr38    Zr   0.86702   0.86728   0.69502   1.000
    Zr39    Zr   0.69475   0.57140   0.86630   1.000
    Zr40    Zr   0.86687   0.86665   0.57170   1.000
    Zr41    Zr   0.57135   0.69474   0.86664   1.000
    Zr42    Zr   0.69475   0.86643   0.57136   1.000
    Zr43    Zr   0.86687   0.57177   0.86662   1.000
    Zr44    Zr   0.57136   0.86669   0.69469   1.000
    Zr45    Zr   0.86701   0.69508   0.86724   1.000
    O46     O    0.12199   0.34682   0.12182   1.000
    O47     O    0.12206   0.40847   0.12212   1.000
    O48     O    0.34692   0.12187   0.12188   1.000
    O49     O    0.40862   0.12205   0.12206   1.000
    O50     O    0.40887   0.34716   0.12232   1.000
    O51     O    0.34717   0.40883   0.12245   1.000
    O52     O    0.16967   0.25557   0.16947   1.000
    O53     O    0.25568   0.16952   0.16953   1.000
    O54     O    0.40442   0.16990   0.16991   1.000
    O55     O    0.40455   0.25595   0.16998   1.000
    O56     O    0.16989   0.40430   0.17006   1.000
    O57     O    0.25595   0.40449   0.17018   1.000
    O58     O    0.16967   0.16947   0.25558   1.000
    O59     O    0.40454   0.16998   0.25595   1.000
    O60     O    0.22829   0.31514   0.22835   1.000
    O61     O    0.16999   0.40452   0.25604   1.000
    O62     O    0.22829   0.22835   0.31513   1.000
    O63     O    0.12198   0.12185   0.34682   1.000
    O64     O    0.40886   0.12232   0.34716   1.000
    O65     O    0.12228   0.40889   0.34720   1.000
    O66     O    0.16989   0.17007   0.40429   1.000
    O67     O    0.25595   0.17018   0.40448   1.000
    O68     O    0.16999   0.25605   0.40450   1.000
    O69     O    0.12205   0.12217   0.40847   1.000
    O70     O    0.34716   0.12245   0.40883   1.000
    O71     O    0.12228   0.34721   0.40886   1.000
    O72     O    0.87774   0.65280   0.59110   1.000
    O73     O    0.83003   0.74397   0.59547   1.000
    O74     O    0.65286   0.87757   0.59114   1.000
    O75     O    0.74407   0.82984   0.59549   1.000
    O76     O    0.87796   0.87785   0.59148   1.000
    O77     O    0.83013   0.82995   0.59567   1.000
    O78     O    0.87773   0.59113   0.65278   1.000
    O79     O    0.59116   0.87769   0.65281   1.000
    O80     O    0.87804   0.87816   0.65314   1.000
    O81     O    0.77173   0.77167   0.68484   1.000
    O82     O    0.83003   0.59550   0.74383   1.000
    O83     O    0.59548   0.83004   0.74401   1.000
    O84     O    0.83035   0.83054   0.74438   1.000
    O85     O    0.77173   0.68488   0.77153   1.000
    O86     O    0.74407   0.59553   0.82965   1.000
    O87     O    0.83013   0.59572   0.82981   1.000
    O88     O    0.59547   0.74407   0.82999   1.000
    O89     O    0.59560   0.83011   0.83006   1.000
    O90     O    0.74434   0.83050   0.83044   1.000
    O91     O    0.83035   0.74444   0.83049   1.000
    O92     O    0.65285   0.59118   0.87748   1.000
    O93     O    0.87796   0.59154   0.87782   1.000
    O94     O    0.59115   0.65286   0.87765   1.000
    O95     O    0.59140   0.87797   0.87791   1.000
    O96     O    0.65309   0.87815   0.87808   1.000
    O97     O    0.87803   0.65319   0.87813   1.000
    O98     O    0.31519   0.22827   0.22828   1.000
    O99     O    0.22814   0.22806   0.22807   1.000
    O100    O    0.68483   0.77174   0.77170   1.000
    O101    O    0.77188   0.77195   0.77190   1.000
    N102    N    0.50001   0.50001   0.99997   1.000
    O103    O    0.54115   0.54116   0.95868   1.000
    O104    O    0.45887   0.45886   0.04126   1.000
    N105    N    0.50001   0.00001   0.49998   1.000
    O106    O    0.45886   0.04130   0.45884   1.000
    O107    O    0.54115   0.95872   0.54113   1.000
    N108    N    0.50001   0.00001   0.99997   1.000
    O109    O    0.54125   0.95888   0.95884   1.000
    O110    O    0.45877   0.04114   0.04112   1.000
    N111    N    0.00001   0.50001   0.49998   1.000
    O112    O    0.95876   0.54114   0.54111   1.000
    O113    O    0.04126   0.45888   0.45886   1.000
    N114    N    0.00001   0.00001   0.49998   1.000
    O115    O    0.04115   0.04116   0.45871   1.000
    O116    O    0.95886   0.95886   0.54126   1.000
    N117    N    0.00000   0.50001   0.99999   1.000
    O118    O    0.04115   0.45872   0.04112   1.000
    O119    O    0.95886   0.54129   0.95883   1.000
loop_
    _geom_bond_atom_site_label_1
    _geom_bond_atom_site_label_2
    _geom_bond_distance
    _geom_bond_site_symmetry_2
    _ccdc_geom_bond_type
    Zr8    O46       0.63857      .   S
    Zr24   O46       0.63857      .   S
    Zr8    O47       0.63891      .   S
    Zr22   O47       0.63891      .   S
    Zr13   O48       0.63863      .   S
    Zr33   O48       0.63863      .   S
    Zr13   O49       0.63859      .   S
    Zr31   O49       0.63859      .   S
    Zr11   O50       0.63857      .   S
    Zr27   O50       0.63857      .   S
    Zr11   O51       0.63857      .   S
    Zr29   O51       0.63857      .   S
    Zr24   O52       0.98651      .   S
    Zr2    O52       0.98651      .   S
    Zr33   O53       0.98639      .   S
    Zr2    O53       0.98639      .   S
    Zr31   O54       0.98585      .   S
    Zr1    O54       0.98585      .   S
    Zr27   O55       0.98600      .   S
    Zr1    O55       0.98600      .   S
    Zr22   O56       0.98578      .   S
    Zr0    O56       0.98578      .   S
    Zr29   O57       0.98591      .   S
    Zr0    O57       0.98591      .   S
    Zr2    O58       0.98644      .   S
    Zr26   O58       0.98644      .   S
    Zr1    O59       0.98599      .   S
    Zr23   O59       0.98599      .   S
    Zr0    O60       0.98343      .   S
    Zr20   O60       0.98343      .   S
    Zr0    O61       0.98599      .   S
    Zr32   O61       0.98599      .   S
    Zr20   O62       0.98344      .   S
    Zr3    O62       0.98344      .   S
    Zr26   O63       0.63863      .   S
    Zr10   O63       0.63863      .   S
    Zr23   O64       0.63856      .   S
    Zr9    O64       0.63856      .   S
    Zr32   O65       0.63860      .   S
    Zr12   O65       0.63860      .   S
    Zr3    O66       0.98573      .   S
    Zr28   O66       0.98573      .   S
    Zr3    O67       0.98585      .   S
    Zr25   O67       0.98585      .   S
    Zr3    O68       0.98593      .   S
    Zr30   O68       0.98593      .   S
    Zr10   O69       0.63856      .   S
    Zr28   O69       0.63856      .   S
    Zr9    O70       0.63857      .   S
    Zr25   O70       0.63857      .   S
    Zr12   O71       0.63857      .   S
    Zr30   O71       0.63857      .   S
    Zr37   O72       0.63857      .   S
    Zr15   O72       0.63857      .   S
    Zr37   O73       0.98598      .   S
    Zr7    O73       0.98598      .   S
    Zr42   O74       0.63857      .   S
    Zr18   O74       0.63857      .   S
    Zr42   O75       0.98586      .   S
    Zr7    O75       0.98586      .   S
    Zr40   O76       0.63881      .   S
    Zr16   O76       0.63881      .   S
    Zr40   O77       0.98565      .   S
    Zr7    O77       0.98565      .   S
    Zr15   O78       0.63860      .   S
    Zr35   O78       0.63860      .   S
    Zr18   O79       0.63856      .   S
    Zr44   O79       0.63856      .   S
    Zr16   O80       0.63863      .   S
    Zr38   O80       0.63863      .   S
    Zr7    O81       0.98344      .   S
    Zr21   O81       0.98344      .   S
    Zr35   O82       0.98451      .   S
    Zr5    O82       0.98451      .   S
    Zr44   O83       0.98600      .   S
    Zr4    O83       0.98600      .   S
    Zr38   O84       0.98645      .   S
    Zr6    O84       0.98645      .   S
    Zr21   O85       0.98343      .   S
    Zr5    O85       0.98343      .   S
    Zr5    O86       0.98592      .   S
    Zr39   O86       0.98592      .   S
    Zr5    O87       0.98724      .   S
    Zr43   O87       0.98724      .   S
    Zr4    O88       0.98600      .   S
    Zr41   O88       0.98600      .   S
    Zr4    O89       0.98586      .   S
    Zr34   O89       0.98586      .   S
    Zr6    O90       0.98634      .   S
    Zr36   O90       0.98634      .   S
    Zr6    O91       0.98650      .   S
    Zr45   O91       0.98650      .   S
    Zr39   O92       0.63857      .   S
    Zr17   O92       0.63857      .   S
    Zr43   O93       0.63853      .   S
    Zr19   O93       0.63853      .   S
    Zr41   O94       0.63858      .   S
    Zr17   O94       0.63858      .   S
    Zr34   O95       0.63854      .   S
    Zr14   O95       0.63854      .   S
    Zr36   O96       0.63864      .   S
    Zr14   O96       0.63864      .   S
    Zr45   O97       0.63864      .   S
    Zr19   O97       0.63864      .   S
    Zr20   O98       0.98349      .   S
    Zr1    O98       0.98349      .   S
    Zr20   O99       0.98426      .   S
    Zr2    O99       0.98426      .   S
    Zr21   O100      0.98349      .   S
    Zr4    O100      0.98349      .   S
    Zr21   O101      0.98427      .   S
    Zr6    O101      0.98427      .   S
    N102   O103      1.07347      .   S
    Zr17   O103      1.82123      .   S
    N102   O104      1.07347  1_556   S
    Zr11   O104      1.82123      .   S
    N105   O106      1.07340      .   S
    Zr9    O106      1.82115      .   S
    N105   O107      1.07347  1_545   S
    Zr18   O107      1.82121      .   S
    N108   O109      1.07358  1_545   S
    Zr14   O109      1.82150      .   S
    N108   O110      1.07369  1_556   S
    Zr13   O110      1.82152      .   S
    N111   O112      1.07349  1_455   S
    Zr15   O112      1.82129      .   S
    N111   O113      1.07347      .   S
    Zr12   O113      1.82126      .   S
    N114   O115      1.07347      .   S
    Zr10   O115      1.82130      .   S
    N114   O116      1.07348  1_445   S
    Zr16   O116      1.82131      .   S
    N117   O118      1.07334  1_556   S
    Zr8    O118      1.82107      .   S
    N117   O119      1.07359  1_455   S
    Zr19   O119      1.82142      .   S
