# CIF file generated by openbabel 2.4.90, see http://openbabel.sf.net
data_I
_chemical_name_common ''
_cell_length_a 17.293
_cell_length_b 13.056
_cell_length_c 15.041
_cell_angle_alpha 64.208
_cell_angle_beta 83.189
_cell_angle_gamma 75.681
_space_group_name_H-M_alt 'P 1'
_space_group_name_Hall 'P 1'
loop_
    _symmetry_equiv_pos_as_xyz
    x,y,z
loop_
    _atom_site_label
    _atom_site_type_symbol
    _atom_site_fract_x
    _atom_site_fract_y
    _atom_site_fract_z
    _atom_site_occupancy
    Zn0     Zn   0.89704   0.09772   0.81991   1.000
    Zn1     Zn   0.15319   0.91080   0.18159   1.000
    Zn2     Zn   0.65320   0.91080   0.18159   1.000
    Zn3     Zn   0.39703   0.09772   0.81991   1.000
