# CIF file generated by openbabel 2.4.90, see http://openbabel.sf.net
data_I
_chemical_name_common ''
_cell_length_a 19.592
_cell_length_b 14.263
_cell_length_c 14.27
_cell_angle_alpha 102.889
_cell_angle_beta 103.382
_cell_angle_gamma 103.151
_space_group_name_H-M_alt 'P 1'
_space_group_name_Hall 'P 1'
loop_
    _symmetry_equiv_pos_as_xyz
    x,y,z
loop_
    _atom_site_label
    _atom_site_type_symbol
    _atom_site_fract_x
    _atom_site_fract_y
    _atom_site_fract_z
    _atom_site_occupancy
    Zr0     Zr   0.45311   0.26754   0.83477   1.000
    Zr1     Zr   0.95312   0.26753   0.83478   1.000
    Zr2     Zr   0.29782   0.16186   0.72856   1.000
    Zr3     Zr   0.79783   0.16184   0.72857   1.000
    Zr4     Zr   0.04696   0.73248   0.16519   1.000
    Zr5     Zr   0.54696   0.73248   0.16519   1.000
    Zr6     Zr   0.20224   0.83809   0.27138   1.000
    Zr7     Zr   0.70224   0.83810   0.27139   1.000
    Zr8     Zr   0.34761   0.38590   0.78672   1.000
    Zr9     Zr   0.84760   0.38589   0.78674   1.000
    Zr10    Zr   0.40465   0.04515   0.78908   1.000
    Zr11    Zr   0.90467   0.04515   0.78910   1.000
    Zr12    Zr   0.40292   0.21005   0.61059   1.000
    Zr13    Zr   0.90293   0.21005   0.61061   1.000
    Zr14    Zr   0.34588   0.20878   0.95120   1.000
    Zr15    Zr   0.84589   0.20877   0.95124   1.000
    Zr16    Zr   0.15248   0.61410   0.21319   1.000
    Zr17    Zr   0.65247   0.61410   0.21320   1.000
    Zr18    Zr   0.09541   0.95486   0.21090   1.000
    Zr19    Zr   0.59542   0.95486   0.21094   1.000
    Zr20    Zr   0.09714   0.78992   0.38936   1.000
    Zr21    Zr   0.59714   0.78994   0.38937   1.000
    Zr22    Zr   0.15415   0.79125   0.04872   1.000
    Zr23    Zr   0.65416   0.79125   0.04873   1.000
    Zr24    Zr   0.45884   0.12411   0.83624   1.000
    Zr25    Zr   0.95886   0.12410   0.83625   1.000
    Zr26    Zr   0.41487   0.38679   0.81487   1.000
    Zr27    Zr   0.91486   0.38677   0.81487   1.000
    Zr28    Zr   0.29161   0.30957   0.76097   1.000
    Zr29    Zr   0.79161   0.30956   0.76098   1.000
    Zr30    Zr   0.34311   0.04132   0.73071   1.000
    Zr31    Zr   0.84312   0.04132   0.73075   1.000
    Zr32    Zr   0.29194   0.16074   0.87200   1.000
    Zr33    Zr   0.79194   0.16074   0.87211   1.000
    Zr34    Zr   0.33570   0.18129   0.60936   1.000
    Zr35    Zr   0.83571   0.18129   0.60937   1.000
    Zr36    Zr   0.45900   0.23520   0.68698   1.000
    Zr37    Zr   0.95900   0.23520   0.68699   1.000
    Zr38    Zr   0.40748   0.26658   0.95505   1.000
    Zr39    Zr   0.90749   0.26654   0.95505   1.000
    Zr40    Zr   0.04122   0.87591   0.16375   1.000
    Zr41    Zr   0.54123   0.87591   0.16377   1.000
    Zr42    Zr   0.08522   0.61323   0.18507   1.000
    Zr43    Zr   0.58521   0.61323   0.18507   1.000
    Zr44    Zr   0.20848   0.69042   0.23897   1.000
    Zr45    Zr   0.70847   0.69042   0.23898   1.000
    Zr46    Zr   0.15695   0.95868   0.26929   1.000
    Zr47    Zr   0.65696   0.95869   0.26931   1.000
    Zr48    Zr   0.20810   0.83926   0.12786   1.000
    Zr49    Zr   0.70810   0.83928   0.12787   1.000
    Zr50    Zr   0.16437   0.81867   0.39059   1.000
    Zr51    Zr   0.66437   0.81868   0.39060   1.000
    Zr52    Zr   0.04107   0.76480   0.31297   1.000
    Zr53    Zr   0.54107   0.76481   0.31298   1.000
    Zr54    Zr   0.09255   0.73348   0.04490   1.000
    Zr55    Zr   0.59256   0.73346   0.04491   1.000
    O56     O    0.12335   0.76236   0.04681   1.000
    O57     O    0.06975   0.73298   0.10504   1.000
    O58     O    0.62336   0.76235   0.04682   1.000
    O59     O    0.56976   0.73297   0.10505   1.000
    O60     O    0.18113   0.81526   0.08829   1.000
    O61     O    0.68113   0.81526   0.08830   1.000
    O62     O    0.20517   0.83868   0.19962   1.000
    O63     O    0.70517   0.83869   0.19963   1.000
    O64     O    0.04409   0.80420   0.16447   1.000
    O65     O    0.06831   0.91538   0.18733   1.000
    O66     O    0.54410   0.80420   0.16448   1.000
    O67     O    0.56833   0.91539   0.18735   1.000
    O68     O    0.06609   0.67286   0.17513   1.000
    O69     O    0.04401   0.74864   0.23908   1.000
    O70     O    0.56609   0.67285   0.17513   1.000
    O71     O    0.54402   0.74864   0.23908   1.000
    O72     O    0.61884   0.61366   0.19913   1.000
    O73     O    0.11885   0.61366   0.19913   1.000
    O74     O    0.12618   0.95677   0.24009   1.000
    O75     O    0.62619   0.95678   0.24012   1.000
    O76     O    0.18048   0.65226   0.22608   1.000
    O77     O    0.68047   0.65226   0.22609   1.000
    O78     O    0.20536   0.76425   0.25517   1.000
    O79     O    0.70536   0.76426   0.25518   1.000
    O80     O    0.17959   0.89838   0.27033   1.000
    O81     O    0.67960   0.89839   0.27035   1.000
    O82     O    0.18330   0.82838   0.33098   1.000
    O83     O    0.68331   0.82839   0.33100   1.000
    O84     O    0.06911   0.77736   0.35116   1.000
    O85     O    0.56911   0.77737   0.35117   1.000
    O86     O    0.13075   0.80429   0.38997   1.000
    O87     O    0.63075   0.80431   0.38998   1.000
    O88     O    0.36931   0.19567   0.60997   1.000
    O89     O    0.31676   0.17157   0.66896   1.000
    O90     O    0.86932   0.19567   0.60999   1.000
    O91     O    0.81677   0.17156   0.66897   1.000
    O92     O    0.43096   0.22262   0.64878   1.000
    O93     O    0.93097   0.22262   0.64880   1.000
    O94     O    0.45606   0.25137   0.76087   1.000
    O95     O    0.95606   0.25137   0.76088   1.000
    O96     O    0.32047   0.10159   0.72963   1.000
    O97     O    0.29472   0.23571   0.74476   1.000
    O98     O    0.29488   0.16130   0.80028   1.000
    O99     O    0.82048   0.10158   0.72966   1.000
    O100    O    0.79472   0.23570   0.74478   1.000
    O101    O    0.79488   0.16129   0.80034   1.000
    O102    O    0.37388   0.04323   0.75989   1.000
    O103    O    0.87390   0.04323   0.75992   1.000
    O104    O    0.31961   0.34773   0.77384   1.000
    O105    O    0.81961   0.34772   0.77386   1.000
    O106    O    0.38124   0.38634   0.80080   1.000
    O107    O    0.88123   0.38633   0.80080   1.000
    O108    O    0.43175   0.08463   0.81266   1.000
    O109    O    0.93176   0.08462   0.81267   1.000
    O110    O    0.43399   0.32716   0.82482   1.000
    O111    O    0.93399   0.32715   0.82483   1.000
    O112    O    0.45598   0.19582   0.83550   1.000
    O113    O    0.43030   0.26706   0.89491   1.000
    O114    O    0.95599   0.19582   0.83551   1.000
    O115    O    0.93031   0.26704   0.89491   1.000
    O116    O    0.31891   0.18476   0.91160   1.000
    O117    O    0.81891   0.18476   0.91168   1.000
    O118    O    0.37668   0.23768   0.95312   1.000
    O119    O    0.87669   0.23766   0.95314   1.000
    O120    O    0.37547   0.21470   0.78166   1.000
    O121    O    0.87547   0.21469   0.78168   1.000
    O122    O    0.12460   0.78528   0.21828   1.000
    O123    O    0.62460   0.78529   0.21829   1.000
    N124    N    0.37023   0.72030   0.81123   1.000
    O125    O    0.35589   0.57759   0.79832   1.000
    O126    O    0.38963   0.85875   0.80411   1.000
    N127    N    0.75004   0.50001   0.99998   1.000
    O128    O    0.87129   0.59509   0.06557   1.000
    O129    O    0.62879   0.40493   0.93440   1.000
    N130    N    0.87966   0.18835   0.27660   1.000
    O131    O    0.89427   0.20019   0.41919   1.000
    O132    O    0.86047   0.19500   0.13798   1.000
    N133    N    0.37965   0.18835   0.27663   1.000
    O134    O    0.36047   0.19501   0.13798   1.000
    O135    O    0.39426   0.20019   0.41919   1.000
    N136    N    0.50003   0.00003   0.49998   1.000
    O137    O    0.37838   0.93575   0.40658   1.000
    O138    O    0.62168   0.06427   0.59338   1.000
    N139    N    0.12983   0.27970   0.18875   1.000
    O140    O    0.14418   0.42240   0.20162   1.000
    O141    O    0.11043   0.14125   0.19588   1.000
    N142    N    0.12040   0.81168   0.72332   1.000
    O143    O    0.10580   0.79982   0.58076   1.000
    O144    O    0.13957   0.80503   0.86196   1.000
    N145    N    0.87023   0.72029   0.81123   1.000
    O146    O    0.85589   0.57758   0.79833   1.000
    O147    O    0.88964   0.85875   0.80412   1.000
    N148    N    0.25003   0.50002   0.00007   1.000
    O149    O    0.12878   0.40493   0.93446   1.000
    O150    O    0.37128   0.59510   0.06562   1.000
    N151    N    0.00003   0.00005   0.49998   1.000
    O152    O    0.87838   0.93576   0.40656   1.000
    O153    O    0.12168   0.06429   0.59338   1.000
    N154    N    0.62983   0.27970   0.18874   1.000
    O155    O    0.61043   0.14125   0.19588   1.000
    O156    O    0.64418   0.42241   0.20162   1.000
    N157    N    0.62040   0.81168   0.72327   1.000
    O158    O    0.63958   0.80503   0.86194   1.000
    O159    O    0.60580   0.79983   0.58073   1.000
loop_
    _geom_bond_atom_site_label_1
    _geom_bond_atom_site_label_2
    _geom_bond_distance
    _geom_bond_site_symmetry_2
    _ccdc_geom_bond_type
    Zr54   O56       0.63945      .   S
    Zr22   O56       0.63945      .   S
    Zr54   O57       1.05590      .   S
    Zr4    O57       1.05590      .   S
    Zr55   O58       0.63948      .   S
    Zr23   O58       0.63948      .   S
    Zr55   O59       1.05585      .   S
    Zr5    O59       1.05585      .   S
    Zr22   O60       0.63926      .   S
    Zr48   O60       0.63926      .   S
    Zr23   O61       0.63925      .   S
    Zr49   O61       0.63925      .   S
    Zr48   O62       1.04059      .   S
    Zr6    O62       1.04059      .   S
    Zr49   O63       1.04058      .   S
    Zr7    O63       1.04058      .   S
    Zr40   O64       1.03931      .   S
    Zr4    O64       1.03931      .   S
    Zr40   O65       0.63935      .   S
    Zr18   O65       0.63935      .   S
    Zr41   O66       1.03927      .   S
    Zr5    O66       1.03927      .   S
    Zr41   O67       0.63938      .   S
    Zr19   O67       0.63938      .   S
    Zr4    O68       1.02865      .   S
    Zr42   O68       1.02865      .   S
    Zr4    O69       1.04593      .   S
    Zr52   O69       1.04593      .   S
    Zr5    O70       1.02860      .   S
    Zr43   O70       1.02860      .   S
    Zr5    O71       1.04602      .   S
    Zr53   O71       1.04602      .   S
    Zr43   O72       0.64093      .   S
    Zr17   O72       0.64093      .   S
    Zr42   O73       0.64092      .   S
    Zr16   O73       0.64092      .   S
    Zr18   O74       0.63945      .   S
    Zr46   O74       0.63945      .   S
    Zr19   O75       0.63938      .   S
    Zr47   O75       0.63938      .   S
    Zr16   O76       0.63544      .   S
    Zr44   O76       0.63544      .   S
    Zr17   O77       0.63544      .   S
    Zr45   O77       0.63544      .   S
    Zr44   O78       1.04571      .   S
    Zr6    O78       1.04571      .   S
    Zr45   O79       1.04571      .   S
    Zr7    O79       1.04571      .   S
    Zr46   O80       1.05496      .   S
    Zr6    O80       1.05496      .   S
    Zr47   O81       1.05492      .   S
    Zr7    O81       1.05492      .   S
    Zr6    O82       1.02738      .   S
    Zr50   O82       1.02738      .   S
    Zr7    O83       1.02741      .   S
    Zr51   O83       1.02741      .   S
    Zr52   O84       0.63556      .   S
    Zr20   O84       0.63556      .   S
    Zr53   O85       0.63555      .   S
    Zr21   O85       0.63555      .   S
    Zr20   O86       0.64098      .   S
    Zr50   O86       0.64098      .   S
    Zr21   O87       0.64097      .   S
    Zr51   O87       0.64097      .   S
    Zr34   O88       0.64096      .   S
    Zr12   O88       0.64096      .   S
    Zr34   O89       1.02738      .   S
    Zr2    O89       1.02738      .   S
    Zr35   O90       0.64095      .   S
    Zr13   O90       0.64095      .   S
    Zr35   O91       1.02741      .   S
    Zr3    O91       1.02741      .   S
    Zr12   O92       0.63556      .   S
    Zr36   O92       0.63556      .   S
    Zr13   O93       0.63551      .   S
    Zr37   O93       0.63551      .   S
    Zr36   O94       1.04601      .   S
    Zr0    O94       1.04601      .   S
    Zr37   O95       1.04600      .   S
    Zr1    O95       1.04600      .   S
    Zr2    O96       1.05470      .   S
    Zr30   O96       1.05470      .   S
    Zr2    O97       1.04584      .   S
    Zr28   O97       1.04584      .   S
    Zr2    O98       1.03996      .   S
    Zr32   O98       1.03996      .   S
    Zr3    O99       1.05465      .   S
    Zr31   O99       1.05465      .   S
    Zr3    O100      1.04590      .   S
    Zr29   O100      1.04590      .   S
    Zr3    O101      1.04067      .   S
    Zr33   O101      1.04067      .   S
    Zr30   O102      0.63938      .   S
    Zr10   O102      0.63938      .   S
    Zr31   O103      0.63935      .   S
    Zr11   O103      0.63935      .   S
    Zr28   O104      0.63542      .   S
    Zr8    O104      0.63542      .   S
    Zr29   O105      0.63542      .   S
    Zr9    O105      0.63542      .   S
    Zr8    O106      0.64095      .   S
    Zr26   O106      0.64095      .   S
    Zr9    O107      0.64094      .   S
    Zr27   O107      0.64094      .   S
    Zr10   O108      0.63938      .   S
    Zr24   O108      0.63938      .   S
    Zr11   O109      0.63939      .   S
    Zr25   O109      0.63939      .   S
    Zr26   O110      1.02857      .   S
    Zr0    O110      1.02857      .   S
    Zr27   O111      1.02861      .   S
    Zr1    O111      1.02861      .   S
    Zr0    O112      1.03931      .   S
    Zr24   O112      1.03931      .   S
    Zr0    O113      1.05602      .   S
    Zr38   O113      1.05602      .   S
    Zr1    O114      1.03936      .   S
    Zr25   O114      1.03936      .   S
    Zr1    O115      1.05596      .   S
    Zr39   O115      1.05596      .   S
    Zr32   O116      0.63949      .   S
    Zr14   O116      0.63949      .   S
    Zr33   O117      0.63923      .   S
    Zr15   O117      0.63923      .   S
    Zr14   O118      0.63941      .   S
    Zr38   O118      0.63941      .   S
    Zr15   O119      0.63947      .   S
    Zr39   O119      0.63947      .   S
    Zr0    O120      1.46503      .   S
    Zr2    O120      1.46503      .   S
    Zr1    O121      1.46507      .   S
    Zr3    O121      1.46507      .   S
    Zr4    O122      1.46485      .   S
    Zr6    O122      1.46485      .   S
    Zr5    O123      1.46488      .   S
    Zr7    O123      1.46488      .   S
    N124   O125      1.95055      .   S
    Zr8    O125      2.66702      .   S
    N124   O126      1.95453      .   S
    Zr10   O126      2.66991  1_545   S
    N127   O128      2.30148  1_556   S
    Zr4    O128      3.33607  1_455   S
    N127   O129      2.30154      .   S
    Zr0    O129      3.33626      .   S
    N130   O131      1.95080      .   S
    Zr13   O131      2.66705      .   S
    N130   O132      1.95424      .   S
    Zr15   O132      2.66982  1_556   S
    N133   O134      1.95460      .   S
    Zr14   O134      2.67041  1_556   S
    N133   O135      1.95042      .   S
    Zr12   O135      2.66681      .   S
    N136   O137      2.29945  1_545   S
    Zr6    O137      3.33219      .   S
    N136   O138      2.29946      .   S
    Zr3    O138      3.33219      .   S
    N139   O140      1.95055      .   S
    Zr16   O140      2.66702      .   S
    N139   O141      1.95449      .   S
    Zr18   O141      2.66981  1_565   S
    N142   O143      1.95047      .   S
    Zr20   O143      2.66664      .   S
    N142   O144      1.95452      .   S
    Zr22   O144      2.67008  1_554   S
    N145   O146      1.95056      .   S
    Zr9    O146      2.66703      .   S
    N145   O147      1.95453      .   S
    Zr11   O147      2.66992  1_545   S
    N148   O149      2.30148  1_554   S
    Zr1    O149      3.33608  1_655   S
    N148   O150      2.30153      .   S
    Zr5    O150      3.33624      .   S
    N151   O152      2.29945  1_445   S
    Zr7    O152      3.33208      .   S
    N151   O153      2.29940      .   S
    Zr2    O153      3.33212      .   S
    N154   O155      1.95455      .   S
    Zr19   O155      2.66992  1_565   S
    N154   O156      1.95054      .   S
    Zr17   O156      2.66701      .   S
    N157   O158      1.95499      .   S
    Zr23   O158      2.67055  1_554   S
    N157   O159      1.95002      .   S
    Zr21   O159      2.66619      .   S
