# CIF file generated by openbabel 2.4.90, see http://openbabel.sf.net
data_I
_chemical_name_common ''
_cell_length_a 18.464
_cell_length_b 18.456
_cell_length_c 18.454
_cell_angle_alpha 59.998
_cell_angle_beta 60.026
_cell_angle_gamma 60.029
_space_group_name_H-M_alt 'P 1'
_space_group_name_Hall 'P 1'
loop_
    _symmetry_equiv_pos_as_xyz
    x,y,z
loop_
    _atom_site_label
    _atom_site_type_symbol
    _atom_site_fract_x
    _atom_site_fract_y
    _atom_site_fract_z
    _atom_site_occupancy
    C0      C    0.29393   0.01615   0.29416   1.000
    C1      C    0.51597   0.79445   0.51587   1.000
    C2      C    0.29393   0.29415   0.01613   1.000
    C3      C    0.51596   0.51588   0.79446   1.000
    C4      C    0.01632   0.29406   0.29408   1.000
    C5      C    0.79451   0.51589   0.51590   1.000
    C6      C    0.29547   0.01593   0.01593   1.000
    C7      C    0.51730   0.79412   0.79415   1.000
    C8      C    0.01599   0.29546   0.01593   1.000
    C9      C    0.79403   0.51732   0.79420   1.000
    C10     C    0.01599   0.01594   0.29548   1.000
    C11     C    0.79405   0.79416   0.51730   1.000
    C12     C    0.98362   0.70595   0.70594   1.000
    C13     C    0.20543   0.48412   0.48412   1.000
    C14     C    0.70602   0.70585   0.98389   1.000
    C15     C    0.48398   0.48413   0.20550   1.000
    C16     C    0.70601   0.98386   0.70586   1.000
    C17     C    0.48397   0.20555   0.48415   1.000
    C18     C    0.98395   0.70455   0.98400   1.000
    C19     C    0.20591   0.48269   0.20582   1.000
    C20     C    0.70447   0.98408   0.98409   1.000
    C21     C    0.48264   0.20589   0.20587   1.000
    C22     C    0.98396   0.98407   0.70454   1.000
    C23     C    0.20589   0.20584   0.48270   1.000
