# CIF file generated by openbabel 2.4.90, see http://openbabel.sf.net
data_I
_chemical_name_common ''
_cell_length_a 18.464
_cell_length_b 18.456
_cell_length_c 18.454
_cell_angle_alpha 59.998
_cell_angle_beta 60.026
_cell_angle_gamma 60.029
_space_group_name_H-M_alt 'P 1'
_space_group_name_Hall 'P 1'
loop_
    _symmetry_equiv_pos_as_xyz
    x,y,z
loop_
    _atom_site_label
    _atom_site_type_symbol
    _atom_site_fract_x
    _atom_site_fract_y
    _atom_site_fract_z
    _atom_site_occupancy
    Zr0     Zr   0.61152   0.78534   0.61152   1.000
    Zr1     Zr   0.19851   0.02433   0.19855   1.000
    Zr2     Zr   0.61150   0.61151   0.78537   1.000
    Zr3     Zr   0.19852   0.19854   0.02431   1.000
    Zr4     Zr   0.78520   0.61154   0.61154   1.000
    Zr5     Zr   0.02451   0.19854   0.19855   1.000
    Zr6     Zr   0.61143   0.61127   0.61126   1.000
    Zr7     Zr   0.19855   0.19861   0.19862   1.000
    Zr8     Zr   0.21474   0.38847   0.38840   1.000
    Zr9     Zr   0.97543   0.80147   0.80146   1.000
    Zr10    Zr   0.38844   0.38850   0.21464   1.000
    Zr11    Zr   0.80142   0.80147   0.97571   1.000
    Zr12    Zr   0.38842   0.21467   0.38850   1.000
    Zr13    Zr   0.80143   0.97567   0.80147   1.000
    Zr14    Zr   0.38851   0.38874   0.38876   1.000
    Zr15    Zr   0.80140   0.80140   0.80140   1.000
    Zr16    Zr   0.29393   0.01615   0.29416   1.000
    Zr17    Zr   0.51597   0.79445   0.51587   1.000
    Zr18    Zr   0.29393   0.29415   0.01613   1.000
    Zr19    Zr   0.51596   0.51588   0.79446   1.000
    Zr20    Zr   0.01632   0.29406   0.29408   1.000
    Zr21    Zr   0.79451   0.51589   0.51590   1.000
    Zr22    Zr   0.29547   0.01593   0.01593   1.000
    Zr23    Zr   0.51730   0.79412   0.79415   1.000
    Zr24    Zr   0.01599   0.29546   0.01593   1.000
    Zr25    Zr   0.79403   0.51732   0.79420   1.000
    Zr26    Zr   0.01599   0.01594   0.29548   1.000
    Zr27    Zr   0.79405   0.79416   0.51730   1.000
    Zr28    Zr   0.98362   0.70595   0.70594   1.000
    Zr29    Zr   0.20543   0.48412   0.48412   1.000
    Zr30    Zr   0.70602   0.70585   0.98389   1.000
    Zr31    Zr   0.48398   0.48413   0.20550   1.000
    Zr32    Zr   0.70601   0.98386   0.70586   1.000
    Zr33    Zr   0.48397   0.20555   0.48415   1.000
    Zr34    Zr   0.98395   0.70455   0.98400   1.000
    Zr35    Zr   0.20591   0.48269   0.20582   1.000
    Zr36    Zr   0.70447   0.98408   0.98409   1.000
    Zr37    Zr   0.48264   0.20589   0.20587   1.000
    Zr38    Zr   0.98396   0.98407   0.70454   1.000
    Zr39    Zr   0.20589   0.20584   0.48270   1.000
    Zr40    Zr   0.53921   0.83356   0.71019   1.000
    Zr41    Zr   0.27292   0.97629   0.09978   1.000
    Zr42    Zr   0.71014   0.53925   0.83364   1.000
    Zr43    Zr   0.09975   0.27276   0.97629   1.000
    Zr44    Zr   0.83343   0.71022   0.53920   1.000
    Zr45    Zr   0.97640   0.09977   0.27302   1.000
    Zr46    Zr   0.83341   0.53917   0.71024   1.000
    Zr47    Zr   0.97641   0.27302   0.09978   1.000
    Zr48    Zr   0.53918   0.71016   0.83361   1.000
    Zr49    Zr   0.27294   0.09977   0.97600   1.000
    Zr50    Zr   0.71017   0.83359   0.53924   1.000
    Zr51    Zr   0.09974   0.97630   0.27281   1.000
    Zr52    Zr   0.53805   0.83406   0.53807   1.000
    Zr53    Zr   0.53821   0.71058   0.53786   1.000
    Zr54    Zr   0.27198   0.09994   0.27208   1.000
    Zr55    Zr   0.27178   0.97649   0.27216   1.000
    Zr56    Zr   0.53805   0.53804   0.83409   1.000
    Zr57    Zr   0.53820   0.53787   0.71058   1.000
    Zr58    Zr   0.27197   0.27207   0.09993   1.000
    Zr59    Zr   0.27177   0.27217   0.97648   1.000
    Zr60    Zr   0.83405   0.53809   0.53806   1.000
    Zr61    Zr   0.71071   0.53798   0.53796   1.000
    Zr62    Zr   0.10005   0.27206   0.27208   1.000
    Zr63    Zr   0.97668   0.27194   0.27200   1.000
    Zr64    Zr   0.65482   0.65485   0.65486   1.000
    Zr65    Zr   0.15507   0.15500   0.15500   1.000
    Zr66    Zr   0.16653   0.46083   0.28978   1.000
    Zr67    Zr   0.02353   0.72698   0.90020   1.000
    Zr68    Zr   0.46076   0.28984   0.16641   1.000
    Zr69    Zr   0.72700   0.90023   0.02372   1.000
    Zr70    Zr   0.28978   0.16642   0.46078   1.000
    Zr71    Zr   0.90020   0.02370   0.72720   1.000
    Zr72    Zr   0.46073   0.16644   0.28983   1.000
    Zr73    Zr   0.72703   0.02371   0.90020   1.000
    Zr74    Zr   0.28980   0.46075   0.16638   1.000
    Zr75    Zr   0.90019   0.72724   0.02373   1.000
    Zr76    Zr   0.16651   0.28979   0.46082   1.000
    Zr77    Zr   0.02354   0.90023   0.72700   1.000
    Zr78    Zr   0.16590   0.46192   0.46196   1.000
    Zr79    Zr   0.28923   0.46202   0.46200   1.000
    Zr80    Zr   0.89989   0.72795   0.72794   1.000
    Zr81    Zr   0.02326   0.72806   0.72802   1.000
    Zr82    Zr   0.46189   0.46196   0.16593   1.000
    Zr83    Zr   0.46174   0.46213   0.28944   1.000
    Zr84    Zr   0.72797   0.72794   0.90009   1.000
    Zr85    Zr   0.72817   0.72784   0.02354   1.000
    Zr86    Zr   0.46190   0.16594   0.46195   1.000
    Zr87    Zr   0.46172   0.28942   0.46217   1.000
    Zr88    Zr   0.72797   0.90007   0.72793   1.000
    Zr89    Zr   0.72816   0.02351   0.72786   1.000
    Zr90    Zr   0.34513   0.34516   0.34515   1.000
    Zr91    Zr   0.84487   0.84500   0.84502   1.000
    O92     O    0.28420   0.99611   0.05785   1.000
    O93     O    0.28421   0.05785   0.99596   1.000
    O94     O    0.99620   0.28424   0.05785   1.000
    O95     O    0.05787   0.28411   0.99611   1.000
    O96     O    0.28295   0.28311   0.05803   1.000
    O97     O    0.28285   0.28316   0.99630   1.000
    O98     O    0.76480   0.76465   0.99962   1.000
    O99     O    0.71709   0.71684   0.00371   1.000
    O100    O    0.76421   0.85085   0.99971   1.000
    O101    O    0.71573   0.94215   0.00390   1.000
    O102    O    0.85081   0.76436   0.99972   1.000
    O103    O    0.94207   0.71590   0.00386   1.000
    O104    O    0.23573   0.14915   0.00015   1.000
    O105    O    0.14914   0.23565   0.00030   1.000
    O106    O    0.23514   0.23535   0.00039   1.000
    O107    O    0.23572   0.00031   0.14916   1.000
    O108    O    0.00046   0.23578   0.14916   1.000
    O109    O    0.23526   0.23534   0.14927   1.000
    O110    O    0.17679   0.08967   0.17677   1.000
    O111    O    0.08979   0.17677   0.17677   1.000
    O112    O    0.47294   0.47305   0.18571   1.000
    O113    O    0.42517   0.42523   0.19028   1.000
    O114    O    0.24786   0.47172   0.18610   1.000
    O115    O    0.33912   0.42462   0.19051   1.000
    O116    O    0.47170   0.24787   0.18614   1.000
    O117    O    0.42460   0.33917   0.19052   1.000
    O118    O    0.23514   0.00041   0.23535   1.000
    O119    O    0.14913   0.00032   0.23568   1.000
    O120    O    0.00059   0.23524   0.23527   1.000
    O121    O    0.00045   0.14916   0.23578   1.000
    O122    O    0.14930   0.23533   0.23535   1.000
    O123    O    0.23526   0.14927   0.23535   1.000
    O124    O    0.47286   0.47313   0.24747   1.000
    O125    O    0.18622   0.47176   0.24780   1.000
    O126    O    0.47169   0.18617   0.24785   1.000
    O127    O    0.99650   0.28300   0.28304   1.000
    O128    O    0.05818   0.28306   0.28308   1.000
    O129    O    0.28295   0.05804   0.28312   1.000
    O130    O    0.28285   0.99632   0.28316   1.000
    O131    O    0.05786   0.99612   0.28415   1.000
    O132    O    0.99619   0.05786   0.28425   1.000
    O133    O    0.42513   0.42544   0.33910   1.000
    O134    O    0.19064   0.42465   0.33909   1.000
    O135    O    0.42458   0.19056   0.33916   1.000
    O136    O    0.27993   0.36681   0.36677   1.000
    O137    O    0.36678   0.27992   0.36683   1.000
    O138    O    0.19062   0.33913   0.42461   1.000
    O139    O    0.19032   0.42519   0.42518   1.000
    O140    O    0.33910   0.19054   0.42464   1.000
    O141    O    0.42516   0.19031   0.42522   1.000
    O142    O    0.33887   0.42538   0.42538   1.000
    O143    O    0.42512   0.33908   0.42546   1.000
    O144    O    0.24783   0.18613   0.47174   1.000
    O145    O    0.18620   0.24782   0.47176   1.000
    O146    O    0.47293   0.18575   0.47305   1.000
    O147    O    0.18566   0.47302   0.47304   1.000
    O148    O    0.24733   0.47307   0.47306   1.000
    O149    O    0.47285   0.24749   0.47316   1.000
    O150    O    0.52709   0.75252   0.52686   1.000
    O151    O    0.52701   0.81426   0.52697   1.000
    O152    O    0.75261   0.52694   0.52693   1.000
    O153    O    0.81428   0.52699   0.52698   1.000
    O154    O    0.81374   0.75219   0.52825   1.000
    O155    O    0.75211   0.81388   0.52827   1.000
    O156    O    0.57482   0.66092   0.57456   1.000
    O157    O    0.66107   0.57462   0.57461   1.000
    O158    O    0.80962   0.57481   0.57480   1.000
    O159    O    0.57478   0.80970   0.57479   1.000
    O160    O    0.80932   0.66088   0.57537   1.000
    O161    O    0.66084   0.80946   0.57538   1.000
    O162    O    0.57482   0.57457   0.66092   1.000
    O163    O    0.63317   0.72009   0.63319   1.000
    O164    O    0.57536   0.80945   0.66085   1.000
    O165    O    0.72001   0.63319   0.63320   1.000
    O166    O    0.80931   0.57536   0.66089   1.000
    O167    O    0.00375   0.94215   0.71577   1.000
    O168    O    0.94208   0.00389   0.71587   1.000
    O169    O    0.71708   0.00369   0.71686   1.000
    O170    O    0.71699   0.94196   0.71689   1.000
    O171    O    0.94176   0.71695   0.71694   1.000
    O172    O    0.00344   0.71701   0.71698   1.000
    O173    O    0.52825   0.81384   0.75217   1.000
    O174    O    0.81372   0.52825   0.75222   1.000
    O175    O    0.52708   0.52687   0.75252   1.000
    O176    O    0.99949   0.85085   0.76423   1.000
    O177    O    0.85081   0.99969   0.76433   1.000
    O178    O    0.76480   0.99959   0.76467   1.000
    O179    O    0.76469   0.85073   0.76467   1.000
    O180    O    0.85064   0.76467   0.76467   1.000
    O181    O    0.99935   0.76477   0.76474   1.000
    O182    O    0.57534   0.66084   0.80949   1.000
    O183    O    0.66082   0.57538   0.80951   1.000
    O184    O    0.57478   0.57477   0.80973   1.000
    O185    O    0.52824   0.75214   0.81388   1.000
    O186    O    0.75209   0.52829   0.81392   1.000
    O187    O    0.52700   0.52696   0.81427   1.000
    O188    O    0.76469   0.76467   0.85074   1.000
    O189    O    0.91015   0.82324   0.82324   1.000
    O190    O    0.99948   0.76423   0.85083   1.000
    O191    O    0.82315   0.91034   0.82325   1.000
    O192    O    0.76423   0.99969   0.85084   1.000
    O193    O    0.71700   0.71690   0.94199   1.000
    O194    O    0.00374   0.71577   0.94210   1.000
    O195    O    0.71575   0.00389   0.94214   1.000
    O196    O    0.63316   0.63318   0.72011   1.000
    O197    O    0.63312   0.63306   0.63306   1.000
    O198    O    0.17679   0.17677   0.08965   1.000
    O199    O    0.17681   0.17680   0.17681   1.000
    O200    O    0.36678   0.36683   0.27990   1.000
    O201    O    0.36682   0.36695   0.36695   1.000
    O202    O    0.82315   0.82324   0.91036   1.000
    O203    O    0.82313   0.82320   0.82321   1.000
    N204    N    0.90499   0.90504   0.40735   1.000
    O205    O    0.86383   0.86391   0.44820   1.000
    O206    O    0.94614   0.94616   0.36598   1.000
    N207    N    0.90539   0.40498   0.40499   1.000
    O208    O    0.86428   0.44611   0.44612   1.000
    O209    O    0.94650   0.36385   0.36386   1.000
    N210    N    0.40494   0.90528   0.40502   1.000
    O211    O    0.44612   0.86419   0.44613   1.000
    O212    O    0.36378   0.94637   0.36392   1.000
    N213    N    0.59500   0.59499   0.09474   1.000
    O214    O    0.55382   0.55388   0.13581   1.000
    O215    O    0.63617   0.63610   0.05366   1.000
    N216    N    0.09496   0.59266   0.09496   1.000
    O217    O    0.05380   0.63404   0.05382   1.000
    O218    O    0.13612   0.55181   0.13608   1.000
    N219    N    0.40494   0.40501   0.90527   1.000
    O220    O    0.36378   0.36391   0.94636   1.000
    O221    O    0.44612   0.44613   0.86419   1.000
    N222    N    0.59264   0.09499   0.09498   1.000
    O223    O    0.55178   0.13613   0.13612   1.000
    O224    O    0.63400   0.05386   0.05386   1.000
    N225    N    0.90498   0.40735   0.90505   1.000
    O226    O    0.86382   0.44820   0.86393   1.000
    O227    O    0.94614   0.36597   0.94617   1.000
    N228    N    0.40731   0.90501   0.90503   1.000
    O229    O    0.44817   0.86387   0.86390   1.000
    O230    O    0.36594   0.94614   0.94616   1.000
    N231    N    0.59500   0.09473   0.59500   1.000
    O232    O    0.63616   0.05364   0.63610   1.000
    O233    O    0.55382   0.13582   0.55389   1.000
    N234    N    0.09495   0.09497   0.59266   1.000
    O235    O    0.13611   0.13610   0.55182   1.000
    O236    O    0.05380   0.05384   0.63404   1.000
    N237    N    0.09455   0.59503   0.59503   1.000
    O238    O    0.13566   0.55389   0.55389   1.000
    O239    O    0.05344   0.63616   0.63615   1.000
loop_
    _geom_bond_atom_site_label_1
    _geom_bond_atom_site_label_2
    _geom_bond_distance
    _geom_bond_site_symmetry_2
    _ccdc_geom_bond_type
    Zr22   O92       0.63863  1_545   S
    Zr41   O92       0.63863      .   S
    Zr22   O93       0.63902  1_554   S
    Zr49   O93       0.63902      .   S
    Zr24   O94       0.63866  1_455   S
    Zr47   O94       0.63866      .   S
    Zr24   O95       0.63859  1_554   S
    Zr43   O95       0.63859      .   S
    Zr18   O96       0.63841      .   S
    Zr58   O96       0.63841      .   S
    Zr18   O97       0.63820  1_554   S
    Zr59   O97       0.63820      .   S
    Zr85   O98       0.98734  1_554   S
    Zr11   O98       0.98734      .   S
    Zr85   O99       0.63819      .   S
    Zr30   O99       0.63819  1_556   S
    Zr69   O100      0.98636  1_554   S
    Zr11   O100      0.98636      .   S
    Zr69   O101      0.63865      .   S
    Zr36   O101      0.63865  1_556   S
    Zr75   O102      0.98643  1_554   S
    Zr11   O102      0.98643      .   S
    Zr75   O103      0.63870      .   S
    Zr34   O103      0.63870  1_556   S
    Zr3    O104      0.98792      .   S
    Zr49   O104      0.98792  1_556   S
    Zr3    O105      0.98644      .   S
    Zr43   O105      0.98644  1_556   S
    Zr3    O106      0.98734      .   S
    Zr59   O106      0.98734  1_556   S
    Zr41   O107      0.98649  1_565   S
    Zr1    O107      0.98649      .   S
    Zr47   O108      0.98649  1_655   S
    Zr5    O108      0.98649      .   S
    Zr58   O109      0.98652      .   S
    Zr7    O109      0.98652      .   S
    Zr65   O110      0.98469      .   S
    Zr1    O110      0.98469      .   S
    Zr65   O111      0.98459      .   S
    Zr5    O111      0.98459      .   S
    Zr82   O112      0.63840      .   S
    Zr31   O112      0.63840      .   S
    Zr82   O113      0.98566      .   S
    Zr10   O113      0.98566      .   S
    Zr74   O114      0.63922      .   S
    Zr35   O114      0.63922      .   S
    Zr74   O115      0.98679      .   S
    Zr10   O115      0.98679      .   S
    Zr68   O116      0.63921      .   S
    Zr37   O116      0.63921      .   S
    Zr68   O117      0.98671      .   S
    Zr10   O117      0.98671      .   S
    Zr1    O118      0.98718      .   S
    Zr55   O118      0.98718  1_565   S
    Zr1    O119      0.98649      .   S
    Zr51   O119      0.98649  1_565   S
    Zr5    O120      0.98708      .   S
    Zr63   O120      0.98708  1_655   S
    Zr5    O121      0.98651      .   S
    Zr45   O121      0.98651  1_655   S
    Zr7    O122      0.98665      .   S
    Zr62   O122      0.98665      .   S
    Zr7    O123      0.98653      .   S
    Zr54   O123      0.98653      .   S
    Zr31   O124      0.63932      .   S
    Zr83   O124      0.63932      .   S
    Zr35   O125      0.63921      .   S
    Zr66   O125      0.63921      .   S
    Zr37   O126      0.63918      .   S
    Zr72   O126      0.63918      .   S
    Zr63   O127      0.63857      .   S
    Zr20   O127      0.63857  1_455   S
    Zr62   O128      0.63846      .   S
    Zr20   O128      0.63846      .   S
    Zr54   O129      0.63845      .   S
    Zr16   O129      0.63845      .   S
    Zr55   O130      0.63836      .   S
    Zr16   O130      0.63836  1_545   S
    Zr51   O131      0.63857      .   S
    Zr26   O131      0.63857  1_545   S
    Zr45   O132      0.63866      .   S
    Zr26   O132      0.63866  1_455   S
    Zr83   O133      0.98654      .   S
    Zr14   O133      0.98654      .   S
    Zr66   O134      0.98596      .   S
    Zr8    O134      0.98596      .   S
    Zr72   O135      0.98674      .   S
    Zr12   O135      0.98674      .   S
    Zr90   O136      0.98325      .   S
    Zr8    O136      0.98325      .   S
    Zr90   O137      0.98333      .   S
    Zr12   O137      0.98333      .   S
    Zr8    O138      0.98655      .   S
    Zr76   O138      0.98655      .   S
    Zr8    O139      0.98608      .   S
    Zr78   O139      0.98608      .   S
    Zr12   O140      0.98678      .   S
    Zr70   O140      0.98678      .   S
    Zr12   O141      0.98562      .   S
    Zr86   O141      0.98562      .   S
    Zr14   O142      0.98636      .   S
    Zr79   O142      0.98636      .   S
    Zr14   O143      0.98658      .   S
    Zr87   O143      0.98658      .   S
    Zr70   O144      0.63922      .   S
    Zr39   O144      0.63922      .   S
    Zr76   O145      0.63919      .   S
    Zr39   O145      0.63919      .   S
    Zr86   O146      0.63883      .   S
    Zr33   O146      0.63883      .   S
    Zr78   O147      0.63885      .   S
    Zr29   O147      0.63885      .   S
    Zr79   O148      0.63878      .   S
    Zr29   O148      0.63878      .   S
    Zr87   O149      0.63886      .   S
    Zr33   O149      0.63886      .   S
    Zr17   O150      0.63885      .   S
    Zr53   O150      0.63885      .   S
    Zr17   O151      0.63886      .   S
    Zr52   O151      0.63886      .   S
    Zr21   O152      0.63886      .   S
    Zr61   O152      0.63886      .   S
    Zr21   O153      0.63883      .   S
    Zr60   O153      0.63883      .   S
    Zr27   O154      0.63918      .   S
    Zr44   O154      0.63918      .   S
    Zr27   O155      0.63922      .   S
    Zr50   O155      0.63922      .   S
    Zr53   O156      0.98655      .   S
    Zr6    O156      0.98655      .   S
    Zr61   O157      0.98669      .   S
    Zr6    O157      0.98669      .   S
    Zr60   O158      0.98549      .   S
    Zr4    O158      0.98549      .   S
    Zr52   O159      0.98560      .   S
    Zr0    O159      0.98560      .   S
    Zr44   O160      0.98656      .   S
    Zr4    O160      0.98656      .   S
    Zr50   O161      0.98678      .   S
    Zr0    O161      0.98678      .   S
    Zr6    O162      0.98654      .   S
    Zr57   O162      0.98654      .   S
    Zr0    O163      0.98333      .   S
    Zr64   O163      0.98333      .   S
    Zr0    O164      0.98674      .   S
    Zr40   O164      0.98674      .   S
    Zr4    O165      0.98324      .   S
    Zr64   O165      0.98324      .   S
    Zr4    O166      0.98655      .   S
    Zr46   O166      0.98655      .   S
    Zr38   O167      0.63866  1_655   S
    Zr77   O167      0.63866      .   S
    Zr38   O168      0.63857  1_565   S
    Zr71   O168      0.63857      .   S
    Zr32   O169      0.63832  1_565   S
    Zr89   O169      0.63832      .   S
    Zr32   O170      0.63845      .   S
    Zr88   O170      0.63845      .   S
    Zr28   O171      0.63846      .   S
    Zr80   O171      0.63846      .   S
    Zr28   O172      0.63853  1_655   S
    Zr81   O172      0.63853      .   S
    Zr40   O173      0.63918      .   S
    Zr23   O173      0.63918      .   S
    Zr46   O174      0.63921      .   S
    Zr25   O174      0.63921      .   S
    Zr57   O175      0.63883      .   S
    Zr19   O175      0.63883      .   S
    Zr77   O176      0.98650  1_455   S
    Zr9    O176      0.98650      .   S
    Zr71   O177      0.98649  1_545   S
    Zr13   O177      0.98649      .   S
    Zr89   O178      0.98722  1_545   S
    Zr13   O178      0.98722      .   S
    Zr88   O179      0.98655      .   S
    Zr15   O179      0.98655      .   S
    Zr80   O180      0.98665      .   S
    Zr15   O180      0.98665      .   S
    Zr81   O181      0.98704  1_455   S
    Zr9    O181      0.98704      .   S
    Zr2    O182      0.98677      .   S
    Zr48   O182      0.98677      .   S
    Zr2    O183      0.98684      .   S
    Zr42   O183      0.98684      .   S
    Zr2    O184      0.98564      .   S
    Zr56   O184      0.98564      .   S
    Zr23   O185      0.63921      .   S
    Zr48   O185      0.63921      .   S
    Zr25   O186      0.63922      .   S
    Zr42   O186      0.63922      .   S
    Zr19   O187      0.63889      .   S
    Zr56   O187      0.63889      .   S
    Zr15   O188      0.98652      .   S
    Zr84   O188      0.98652      .   S
    Zr9    O189      0.98459      .   S
    Zr91   O189      0.98459      .   S
    Zr9    O190      0.98627      .   S
    Zr67   O190      0.98627  1_455   S
    Zr13   O191      0.98469      .   S
    Zr91   O191      0.98469      .   S
    Zr13   O192      0.98619      .   S
    Zr73   O192      0.98619  1_545   S
    Zr84   O193      0.63840      .   S
    Zr30   O193      0.63840      .   S
    Zr67   O194      0.63831      .   S
    Zr34   O194      0.63831  1_655   S
    Zr73   O195      0.63891      .   S
    Zr36   O195      0.63891  1_565   S
    Zr64   O196      0.98335      .   S
    Zr2    O196      0.98335      .   S
    Zr64   O197      0.98373      .   S
    Zr6    O197      0.98373      .   S
    Zr65   O198      0.98470      .   S
    Zr3    O198      0.98470      .   S
    Zr65   O199      0.98475      .   S
    Zr7    O199      0.98475      .   S
    Zr90   O200      0.98335      .   S
    Zr10   O200      0.98335      .   S
    Zr90   O201      0.98381      .   S
    Zr14   O201      0.98381      .   S
    Zr91   O202      0.98470      .   S
    Zr11   O202      0.98470      .   S
    Zr91   O203      0.98473      .   S
    Zr15   O203      0.98473      .   S
    N204   O205      1.07411      .   S
    Zr27   O205      1.82121      .   S
    N204   O206      1.07393      .   S
    Zr26   O206      1.82247  1_445   S
    N207   O208      1.07409      .   S
    Zr21   O208      1.82192      .   S
    N207   O209      1.07387      .   S
    Zr20   O209      1.82219  1_455   S
    N210   O211      1.07410      .   S
    Zr17   O211      1.82195      .   S
    N210   O212      1.07385      .   S
    Zr16   O212      1.82216  1_545   S
    N213   O214      1.07410      .   S
    Zr31   O214      1.82193      .   S
    N213   O215      1.07386      .   S
    Zr30   O215      1.82223  1_556   S
    N216   O217      1.07414      .   S
    Zr34   O217      1.82315  1_656   S
    N216   O218      1.07411      .   S
    Zr35   O218      1.82120      .   S
    N219   O220      1.07386      .   S
    Zr18   O220      1.82222  1_554   S
    N219   O221      1.07410      .   S
    Zr19   O221      1.82193      .   S
    N222   O223      1.07420      .   S
    Zr37   O223      1.82137      .   S
    N222   O224      1.07379      .   S
    Zr36   O224      1.82199  1_566   S
    N225   O226      1.07402      .   S
    Zr25   O226      1.82111      .   S
    N225   O227      1.07394      .   S
    Zr24   O227      1.82236  1_454   S
    N228   O229      1.07413      .   S
    Zr23   O229      1.82130      .   S
    N228   O230      1.07386      .   S
    Zr22   O230      1.82206  1_544   S
    N231   O232      1.07385      .   S
    Zr32   O232      1.82216  1_565   S
    N231   O233      1.07411      .   S
    Zr33   O233      1.82195      .   S
    N234   O235      1.07411      .   S
    Zr39   O235      1.82121      .   S
    N234   O236      1.07393      .   S
    Zr38   O236      1.82248  1_665   S
    N237   O238      1.07405      .   S
    Zr29   O238      1.82187      .   S
    N237   O239      1.07388      .   S
    Zr28   O239      1.82227  1_655   S
