# CIF file generated by openbabel 2.4.90, see http://openbabel.sf.net
data_I
_chemical_name_common ''
_cell_length_a 18.464
_cell_length_b 18.456
_cell_length_c 18.454
_cell_angle_alpha 59.998
_cell_angle_beta 60.026
_cell_angle_gamma 60.029
_space_group_name_H-M_alt 'P 1'
_space_group_name_Hall 'P 1'
loop_
    _symmetry_equiv_pos_as_xyz
    x,y,z
loop_
    _atom_site_label
    _atom_site_type_symbol
    _atom_site_fract_x
    _atom_site_fract_y
    _atom_site_fract_z
    _atom_site_occupancy
    N0      N    0.90499   0.90504   0.40735   1.000
    N1      N    0.90539   0.40498   0.40499   1.000
    N2      N    0.40494   0.90528   0.40502   1.000
    N3      N    0.59500   0.59499   0.09474   1.000
    N4      N    0.09496   0.59266   0.09496   1.000
    N5      N    0.40494   0.40501   0.90527   1.000
    N6      N    0.59264   0.09499   0.09498   1.000
    N7      N    0.90498   0.40735   0.90505   1.000
    N8      N    0.40731   0.90501   0.90503   1.000
    N9      N    0.59500   0.09473   0.59500   1.000
    N10     N    0.09495   0.09497   0.59266   1.000
    N11     N    0.09455   0.59503   0.59503   1.000
    Zr12    Zr   0.34476   0.34484   0.34483   1.000
    O13     O    0.44827   0.24049   0.24047   1.000
    O14     O    0.44929   0.44936   0.24032   1.000
    O15     O    0.24044   0.44832   0.24046   1.000
    O16     O    0.24044   0.24047   0.44832   1.000
    O17     O    0.44929   0.24033   0.44936   1.000
    O18     O    0.24021   0.44936   0.44936   1.000
    Zr19    Zr   0.84476   0.84482   0.84482   1.000
    O20     O    0.74046   0.74046   0.94924   1.000
    O21     O    0.74046   0.94923   0.74046   1.000
    O22     O    0.94928   0.73943   0.94932   1.000
    O23     O    0.73938   0.94934   0.94934   1.000
    O24     O    0.94928   0.94933   0.73943   1.000
    O25     O    0.94910   0.74049   0.74049   1.000
    Zr26    Zr   0.65518   0.65517   0.65518   1.000
    O27     O    0.55065   0.75968   0.55066   1.000
    O28     O    0.75950   0.55168   0.75956   1.000
    O29     O    0.75973   0.55064   0.55065   1.000
    O30     O    0.75951   0.75954   0.55169   1.000
    O31     O    0.55167   0.75952   0.75954   1.000
    O32     O    0.55065   0.55065   0.75969   1.000
    Zr33    Zr   0.15518   0.15519   0.15518   1.000
    O34     O    0.25948   0.25955   0.05077   1.000
    O35     O    0.26056   0.05066   0.05067   1.000
    O36     O    0.05066   0.26058   0.05067   1.000
    O37     O    0.05084   0.25952   0.25952   1.000
    O38     O    0.05066   0.05067   0.26058   1.000
    O39     O    0.25948   0.05078   0.25955   1.000
loop_
    _geom_bond_atom_site_label_1
    _geom_bond_atom_site_label_2
    _geom_bond_distance
    _geom_bond_site_symmetry_2
    _ccdc_geom_bond_type
    Zr12   O13       2.72477      .   S
    N6     O13       3.79897      .   S
    Zr12   O14       2.72867      .   S
    N3     O14       3.80277      .   S
    Zr12   O15       2.72402      .   S
    N4     O15       3.79813      .   S
    Zr12   O16       2.72409      .   S
    N10    O16       3.79820      .   S
    Zr12   O17       2.72872      .   S
    N9     O17       3.80283      .   S
    Zr12   O18       2.72935      .   S
    N11    O18       3.80340      .   S
    Zr19   O20       2.72357      .   S
    N3     O20       3.79743  1_554   S
    Zr19   O21       2.72350      .   S
    N9     O21       3.79735  1_545   S
    Zr19   O22       2.72834      .   S
    N4     O22       3.80248  1_454   S
    Zr19   O23       2.72916      .   S
    N6     O23       3.80295  1_544   S
    Zr19   O24       2.72847      .   S
    N10    O24       3.80240  1_445   S
    Zr19   O25       2.72415      .   S
    N11    O25       3.79803  1_455   S
    Zr26   O27       2.72867      .   S
    N2     O27       3.80277      .   S
    Zr26   O28       2.72404      .   S
    N7     O28       3.79805      .   S
    Zr26   O29       2.72929      .   S
    N1     O29       3.80338      .   S
    Zr26   O30       2.72409      .   S
    N0     O30       3.79820      .   S
    Zr26   O31       2.72480      .   S
    N8     O31       3.79892      .   S
    Zr26   O32       2.72867      .   S
    N5     O32       3.80277      .   S
    Zr33   O34       2.72357      .   S
    N5     O34       3.79743  1_556   S
    Zr33   O35       2.72906      .   S
    N8     O35       3.80292  1_566   S
    Zr33   O36       2.72840      .   S
    N7     O36       3.80234  1_656   S
    Zr33   O37       2.72426      .   S
    N1     O37       3.79814  1_655   S
    Zr33   O38       2.72848      .   S
    N0     O38       3.80241  1_665   S
    Zr33   O39       2.72363      .   S
    N2     O39       3.79748  1_565   S
