# CIF file generated by openbabel 2.4.90, see http://openbabel.sf.net
data_I
_chemical_name_common ''
_cell_length_a 20.935
_cell_length_b 20.946
_cell_length_c 16.318
_cell_angle_alpha 80.949
_cell_angle_beta 81.04
_cell_angle_gamma 49.407
_space_group_name_H-M_alt 'P 1'
_space_group_name_Hall 'P 1'
loop_
    _symmetry_equiv_pos_as_xyz
    x,y,z
loop_
    _atom_site_label
    _atom_site_type_symbol
    _atom_site_fract_x
    _atom_site_fract_y
    _atom_site_fract_z
    _atom_site_occupancy
    Zr0     Zr   0.35686   0.39637   0.21026   1.000
    Zr1     Zr   0.35686   0.89636   0.21026   1.000
    Zr2     Zr   0.85685   0.39637   0.21026   1.000
    Zr3     Zr   0.85686   0.89636   0.21026   1.000
    Zr4     Zr   0.10400   0.14367   0.28961   1.000
    Zr5     Zr   0.10400   0.64366   0.28961   1.000
    Zr6     Zr   0.60400   0.14366   0.28961   1.000
    Zr7     Zr   0.60400   0.64365   0.28961   1.000
    Zr8     Zr   0.14310   0.10364   0.78978   1.000
    Zr9     Zr   0.14310   0.60363   0.78978   1.000
    Zr10    Zr   0.64310   0.10364   0.78978   1.000
    Zr11    Zr   0.64310   0.60363   0.78978   1.000
    Zr12    Zr   0.39596   0.35635   0.71042   1.000
    Zr13    Zr   0.39597   0.85634   0.71042   1.000
    Zr14    Zr   0.89597   0.35634   0.71042   1.000
    Zr15    Zr   0.89597   0.85633   0.71042   1.000
    Zr16    Zr   0.00813   0.49228   0.25003   1.000
    Zr17    Zr   0.00813   0.99227   0.25003   1.000
    Zr18    Zr   0.50813   0.49228   0.25004   1.000
    Zr19    Zr   0.50813   0.99227   0.25003   1.000
    Zr20    Zr   0.49183   0.00772   0.75000   1.000
    Zr21    Zr   0.49184   0.50771   0.70000   1.000
    Zr22    Zr   0.99183   0.00772   0.75000   1.000
    Zr23    Zr   0.99183   0.50771   0.75000   1.000
    N24     N    0.80616   0.56127   0.00227   1.000
    O25     O    0.86914   0.54465   0.89501   1.000
    O26     O    0.74765   0.58276   0.90827   1.000
    O27     O    0.88502   0.54138   0.10024   1.000
    N28     N    0.93879   0.19379   0.49780   1.000
    O29     O    0.95506   0.13069   0.60505   1.000
    O30     O    0.91702   0.25212   0.59183   1.000
    O31     O    0.95894   0.11504   0.39982   1.000
    N32     N    0.30617   0.56128   0.00227   1.000
    O33     O    0.24765   0.58277   0.90827   1.000
    O34     O    0.38502   0.54138   0.10025   1.000
    N35     N    0.06117   0.80621   0.50223   1.000
    O36     O    0.08295   0.74787   0.40819   1.000
    O37     O    0.04490   0.86931   0.39497   1.000
    O38     O    0.04102   0.88496   0.60021   1.000
    N39     N    0.56117   0.80621   0.50221   1.000
    O40     O    0.54490   0.86931   0.39497   1.000
    O41     O    0.58295   0.74787   0.40818   1.000
    O42     O    0.54102   0.88496   0.60020   1.000
    N43     N    0.30616   0.06128   0.00227   1.000
    O44     O    0.38502   0.04139   0.10024   1.000
    O45     O    0.36914   0.04466   0.89501   1.000
    O46     O    0.24765   0.08278   0.90827   1.000
    N47     N    0.19380   0.93871   0.99754   1.000
    O48     O    0.13082   0.95534   0.10491   1.000
    O49     O    0.11494   0.95861   0.89968   1.000
    O50     O    0.25232   0.91722   0.09165   1.000
    N51     N    0.43880   0.69378   0.49775   1.000
    O52     O    0.45894   0.61504   0.39980   1.000
    O53     O    0.41702   0.75212   0.59181   1.000
    O54     O    0.45507   0.63068   0.59253   1.000
    N55     N    0.43880   0.19379   0.49779   1.000
    O56     O    0.45506   0.13069   0.60505   1.000
    O57     O    0.41702   0.25213   0.59183   1.000
    O58     O    0.45894   0.11504   0.39982   1.000
    N59     N    0.06117   0.30622   0.50223   1.000
    O60     O    0.08295   0.24788   0.40819   1.000
    O61     O    0.04490   0.36932   0.39497   1.000
    O62     O    0.04102   0.38496   0.60021   1.000
    N63     N    0.80616   0.06128   0.00227   1.000
    O64     O    0.74764   0.08277   0.90827   1.000
    O65     O    0.88502   0.04138   0.10024   1.000
    O66     O    0.86914   0.04465   0.89501   1.000
    N67     N    0.56116   0.30622   0.50220   1.000
    O68     O    0.58294   0.24788   0.40818   1.000
    O69     O    0.54102   0.38496   0.58769   1.000
    O70     O    0.54490   0.36932   0.39497   1.000
    N71     N    0.19380   0.43872   0.99754   1.000
    O72     O    0.11494   0.45862   0.89967   1.000
    O73     O    0.13082   0.45535   0.10491   1.000
    O74     O    0.25231   0.41723   0.09165   1.000
    N75     N    0.93880   0.69378   0.49780   1.000
    O76     O    0.95506   0.63068   0.60505   1.000
    O77     O    0.91702   0.75211   0.59183   1.000
    O78     O    0.95894   0.61504   0.39982   1.000
    N79     N    0.69380   0.93871   0.99754   1.000
    O80     O    0.75231   0.91722   0.09165   1.000
    O81     O    0.63082   0.95534   0.10491   1.000
    O82     O    0.61494   0.95861   0.89967   1.000
    N83     N    0.69380   0.43872   0.99738   1.000
    O84     O    0.75231   0.41723   0.09157   1.000
    O85     O    0.63082   0.45535   0.10483   1.000
    O86     O    0.22682   0.09173   0.11926   1.000
    O87     O    0.99796   0.17252   0.39805   1.000
    O88     O    0.50200   0.32749   0.60196   1.000
    O89     O    0.27314   0.40828   0.88066   1.000
    O90     O    0.17230   0.99774   0.89796   1.000
    O91     O    0.09134   0.22672   0.61930   1.000
    O92     O    0.72682   0.59172   0.11926   1.000
    O93     O    0.49797   0.67251   0.39803   1.000
    O94     O    0.32767   0.50226   0.10196   1.000
    O95     O    0.40862   0.27329   0.38072   1.000
    O96     O    0.00200   0.82748   0.60197   1.000
    O97     O    0.77314   0.90827   0.88066   1.000
    O98     O    0.59134   0.22672   0.61929   1.000
    O99     O    0.67229   0.99773   0.89796   1.000
    O100    O    0.49796   0.17252   0.39805   1.000
    O101    O    0.72682   0.09173   0.11926   1.000
    O102    O    0.27315   0.90827   0.88066   1.000
    O103    O    0.50200   0.82748   0.60196   1.000
    O104    O    0.82766   0.50226   0.10196   1.000
    O105    O    0.90861   0.27329   0.38073   1.000
    O106    O    0.22682   0.59172   0.11926   1.000
    O107    O    0.99797   0.67251   0.39805   1.000
    O108    O    0.00200   0.32749   0.60197   1.000
    O109    O    0.77314   0.40828   0.88057   1.000
    O110    O    0.82766   0.00226   0.10196   1.000
    O111    O    0.90862   0.77328   0.38073   1.000
    O112    O    0.59134   0.72671   0.61929   1.000
    O113    O    0.67229   0.49774   0.89788   1.000
    O114    O    0.09135   0.72671   0.61930   1.000
    O115    O    0.17230   0.49774   0.89796   1.000
    O116    O    0.32767   0.00226   0.10196   1.000
    O117    O    0.40862   0.77328   0.38060   1.000
loop_
    _geom_bond_atom_site_label_1
    _geom_bond_atom_site_label_2
    _geom_bond_distance
    _geom_bond_site_symmetry_2
    _ccdc_geom_bond_type
    N24    O25       1.94896  1_554   S
    Zr23   O25       2.98192      .   S
    N24    O26       1.92517  1_554   S
    Zr11   O26       2.92022      .   S
    N24    O27       2.27435      .   S
    Zr16   O27       3.37580  1_455   S
    N28    O29       1.94890      .   S
    Zr22   O29       2.98177      .   S
    N28    O30       1.92414      .   S
    Zr14   O30       2.91815      .   S
    N28    O31       2.27360      .   S
    Zr17   O31       3.37567  1_465   S
    N32    O33       1.92516  1_554   S
    Zr9    O33       2.92020      .   S
    N32    O34       2.27434      .   S
    Zr18   O34       3.37585      .   S
    N35    O36       1.92413      .   S
    Zr5    O36       2.91807      .   S
    N35    O37       1.94890      .   S
    Zr17   O37       2.98171      .   S
    N35    O38       2.27363      .   S
    Zr22   O38       3.37568  1_645   S
    N39    O40       1.94871      .   S
    Zr19   O40       2.98167      .   S
    N39    O41       1.92400      .   S
    Zr7    O41       2.91795      .   S
    N39    O42       2.27376      .   S
    Zr20   O42       3.37581  1_545   S
    N43    O44       2.27429      .   S
    Zr19   O44       3.37570  1_565   S
    N43    O45       1.94896  1_554   S
    Zr20   O45       2.98191      .   S
    N43    O46       1.92516  1_554   S
    Zr8    O46       2.92019      .   S
    N47    O48       1.95045  1_556   S
    Zr17   O48       2.98319      .   S
    N47    O49       2.27289      .   S
    Zr22   O49       3.37432  1_645   S
    N47    O50       1.92674  1_556   S
    Zr1    O50       2.92164      .   S
    N51    O52       2.27322      .   S
    Zr18   O52       3.37510      .   S
    N51    O53       1.92447      .   S
    Zr13   O53       2.91845      .   S
    N51    O54       1.78602      .   S
    Zr21   O54       2.59256      .   S
    N55    O56       1.94894      .   S
    Zr20   O56       2.98182      .   S
    N55    O57       1.92418      .   S
    Zr12   O57       2.91819      .   S
    N55    O58       2.27358      .   S
    Zr19   O58       3.37565  1_565   S
    N59    O60       1.92413      .   S
    Zr4    O60       2.91807      .   S
    N59    O61       1.94890      .   S
    Zr16   O61       2.98171      .   S
    N59    O62       2.27357      .   S
    Zr23   O62       3.37549  1_655   S
    N63    O64       1.92516  1_554   S
    Zr10   O64       2.92021      .   S
    N63    O65       2.27433      .   S
    Zr17   O65       3.37574  1_465   S
    N63    O66       1.94896  1_554   S
    Zr22   O66       2.98192      .   S
    N67    O68       1.92395      .   S
    Zr6    O68       2.91790      .   S
    N67    O69       2.11664      .   S
    Zr21   O69       2.91188      .   S
    N67    O70       1.94863      .   S
    Zr18   O70       2.98154      .   S
    N71    O72       2.27297      .   S
    Zr23   O72       3.37430  1_655   S
    N71    O73       1.95045  1_556   S
    Zr16   O73       2.98319      .   S
    N71    O74       1.92675  1_556   S
    Zr0    O74       2.92166      .   S
    N75    O76       1.94891      .   S
    Zr23   O76       2.98178      .   S
    N75    O77       1.92415      .   S
    Zr15   O77       2.91817      .   S
    N75    O78       2.27353      .   S
    Zr16   O78       3.37547  1_455   S
    N79    O80       1.92673  1_556   S
    Zr3    O80       2.92162      .   S
    N79    O81       1.95044  1_556   S
    Zr19   O81       2.98317      .   S
    N79    O82       2.27288      .   S
    Zr20   O82       3.37424  1_545   S
    N83    O84       1.92790  1_556   S
    Zr2    O84       2.92266      .   S
    N83    O85       1.95158  1_556   S
    Zr18   O85       2.98419      .   S
    Zr4    O86       3.25680      .   S
    N43    O86       2.19716      .   S
    Zr4    O87       2.40650  1_455   S
    N28    O87       1.80665      .   S
    Zr12   O88       2.40664      .   S
    N67    O88       1.80685      .   S
    Zr12   O89       3.25535      .   S
    N71    O89       2.19571      .   S
    Zr8    O90       2.39794  1_545   S
    N47    O90       1.80090      .   S
    Zr8    O91       3.25669      .   S
    N59    O91       2.19722      .   S
    Zr7    O92       3.25677      .   S
    N24    O92       2.19715      .   S
    Zr7    O93       2.40622      .   S
    N51    O93       1.80636      .   S
    Zr0    O94       2.39902      .   S
    N32    O94       1.80237      .   S
    Zr0    O95       3.25654      .   S
    N55    O95       2.19714      .   S
    Zr15   O96       2.40651  1_655   S
    N35    O96       1.80668      .   S
    Zr15   O97       3.25541      .   S
    N79    O97       2.19573      .   S
    Zr10   O98       3.25686      .   S
    N67    O98       2.19740      .   S
    Zr10   O99       2.39795  1_545   S
    N79    O99       1.80088      .   S
    Zr6    O100      2.40644      .   S
    N55    O100      1.80665      .   S
    Zr6    O101      3.25677      .   S
    N63    O101      2.19715      .   S
    Zr13   O102      3.25537      .   S
    N47    O102      2.19572      .   S
    Zr13   O103      2.40660      .   S
    N39    O103      1.80680      .   S
    Zr2    O104      2.39901      .   S
    N24    O104      1.80236      .   S
    Zr2    O105      3.25656      .   S
    N28    O105      2.19717      .   S
    Zr5    O106      3.25680      .   S
    N32    O106      2.19716      .   S
    Zr5    O107      2.40646  1_455   S
    N75    O107      1.80668      .   S
    Zr14   O108      2.40652  1_655   S
    N59    O108      1.80668      .   S
    Zr14   O109      3.25434      .   S
    N83    O109      2.19465      .   S
    Zr3    O110      2.39916  1_565   S
    N63    O110      1.80242      .   S
    Zr3    O111      3.25655      .   S
    N75    O111      2.19716      .   S
    Zr11   O112      3.25682      .   S
    N39    O112      2.19735      .   S
    Zr11   O113      2.39696      .   S
    N83    O113      1.79971      .   S
    Zr9    O114      3.25669      .   S
    N35    O114      2.19723      .   S
    Zr9    O115      2.39779      .   S
    N71    O115      1.80084      .   S
    Zr1    O116      2.39917  1_565   S
    N43    O116      1.80242      .   S
    Zr1    O117      3.25500      .   S
    N51    O117      2.19815      .   S
