# CIF file generated by openbabel 2.4.90, see http://openbabel.sf.net
data_I
_chemical_name_common ''
_cell_length_a 20.935
_cell_length_b 20.946
_cell_length_c 16.318
_cell_angle_alpha 80.949
_cell_angle_beta 81.04
_cell_angle_gamma 49.407
_space_group_name_H-M_alt 'P 1'
_space_group_name_Hall 'P 1'
loop_
    _symmetry_equiv_pos_as_xyz
    x,y,z
loop_
    _atom_site_label
    _atom_site_type_symbol
    _atom_site_fract_x
    _atom_site_fract_y
    _atom_site_fract_z
    _atom_site_occupancy
    Zr0     Zr   0.35686   0.39637   0.21026   1.000
    Zr1     Zr   0.35686   0.89636   0.21026   1.000
    Zr2     Zr   0.85685   0.39637   0.21026   1.000
    Zr3     Zr   0.85686   0.89636   0.21026   1.000
    Zr4     Zr   0.10400   0.14367   0.28961   1.000
    Zr5     Zr   0.10400   0.64366   0.28961   1.000
    Zr6     Zr   0.60400   0.14366   0.28961   1.000
    Zr7     Zr   0.60400   0.64365   0.28961   1.000
    Zr8     Zr   0.14310   0.10364   0.78978   1.000
    Zr9     Zr   0.14310   0.60363   0.78978   1.000
    Zr10    Zr   0.64310   0.10364   0.78978   1.000
    Zr11    Zr   0.64310   0.60363   0.78978   1.000
    Zr12    Zr   0.39596   0.35635   0.71042   1.000
    Zr13    Zr   0.39597   0.85634   0.71042   1.000
    Zr14    Zr   0.89597   0.35634   0.71042   1.000
    Zr15    Zr   0.89597   0.85633   0.71042   1.000
    Zr16    Zr   0.00813   0.49228   0.25003   1.000
    Zr17    Zr   0.00813   0.99227   0.25003   1.000
    Zr18    Zr   0.50813   0.49228   0.25004   1.000
    Zr19    Zr   0.50813   0.99227   0.25003   1.000
    Zr20    Zr   0.49183   0.00772   0.75000   1.000
    Zr21    Zr   0.49184   0.50771   0.70000   1.000
    Zr22    Zr   0.99183   0.00772   0.75000   1.000
    Zr23    Zr   0.99183   0.50771   0.75000   1.000
    N24     N    0.80616   0.56127   0.00227   1.000
    O25     O    0.86914   0.54465   0.89501   1.000
    O26     O    0.74765   0.58276   0.90827   1.000
    O27     O    0.88502   0.54138   0.10024   1.000
    O28     O    0.85103   0.48811   0.09630   1.000
    O29     O    0.71255   0.60520   0.11107   1.000
    O30     O    0.80430   0.51641   0.10762   1.000
    O31     O    0.74108   0.57823   0.12746   1.000
    N32     N    0.93879   0.19379   0.49780   1.000
    O33     O    0.95506   0.13069   0.60505   1.000
    O34     O    0.89523   0.28756   0.38891   1.000
    O35     O    0.91702   0.25212   0.59183   1.000
    O36     O    0.98379   0.19585   0.39238   1.000
    O37     O    0.92200   0.25902   0.37254   1.000
    O38     O    0.01214   0.14919   0.40373   1.000
    O39     O    0.95894   0.11504   0.39982   1.000
    N40     N    0.30617   0.56128   0.00227   1.000
    O41     O    0.24765   0.58277   0.90827   1.000
    O42     O    0.38502   0.54138   0.10025   1.000
    O43     O    0.30430   0.51641   0.10762   1.000
    O44     O    0.24109   0.57824   0.12746   1.000
    O45     O    0.35104   0.48811   0.09630   1.000
    O46     O    0.21256   0.60521   0.11107   1.000
    N47     N    0.06117   0.80621   0.50223   1.000
    O48     O    0.08295   0.74787   0.40819   1.000
    O49     O    0.98783   0.85081   0.59630   1.000
    O50     O    0.07796   0.74098   0.62749   1.000
    O51     O    0.01617   0.80416   0.60765   1.000
    O52     O    0.04490   0.86931   0.39497   1.000
    O53     O    0.04102   0.88496   0.60021   1.000
    O54     O    0.10473   0.71244   0.61112   1.000
    N55     N    0.56117   0.80621   0.50221   1.000
    O56     O    0.57796   0.74098   0.62748   1.000
    O57     O    0.51617   0.80416   0.60764   1.000
    O58     O    0.54490   0.86931   0.39497   1.000
    O59     O    0.60473   0.71244   0.61111   1.000
    O60     O    0.58295   0.74787   0.40818   1.000
    O61     O    0.54102   0.88496   0.60020   1.000
    O62     O    0.48782   0.85081   0.59629   1.000
    N63     N    0.30616   0.06128   0.00227   1.000
    O64     O    0.21255   0.10521   0.11107   1.000
    O65     O    0.30430   0.01642   0.10762   1.000
    O66     O    0.24108   0.07824   0.12746   1.000
    O67     O    0.38502   0.04139   0.10024   1.000
    O68     O    0.36914   0.04466   0.89501   1.000
    O69     O    0.35104   0.98811   0.09630   1.000
    O70     O    0.24765   0.08278   0.90827   1.000
    N71     N    0.19380   0.93871   0.99754   1.000
    O72     O    0.19566   0.98358   0.89230   1.000
    O73     O    0.25888   0.92176   0.87246   1.000
    O74     O    0.14893   0.01189   0.90362   1.000
    O75     O    0.13082   0.95534   0.10491   1.000
    O76     O    0.28741   0.89479   0.88885   1.000
    O77     O    0.11494   0.95861   0.89968   1.000
    O78     O    0.25232   0.91722   0.09165   1.000
    N79     N    0.43880   0.69378   0.49775   1.000
    O80     O    0.51214   0.64918   0.40370   1.000
    O81     O    0.45894   0.61504   0.39980   1.000
    O82     O    0.41702   0.75212   0.59181   1.000
    O83     O    0.48379   0.69584   0.39235   1.000
    O84     O    0.42201   0.75901   0.37252   1.000
    O85     O    0.39523   0.78755   0.38869   1.000
    O86     O    0.45507   0.63068   0.59253   1.000
    N87     N    0.43880   0.19379   0.49779   1.000
    O88     O    0.51214   0.14919   0.40372   1.000
    O89     O    0.45506   0.13069   0.60505   1.000
    O90     O    0.48379   0.19585   0.39237   1.000
    O91     O    0.42201   0.25902   0.37254   1.000
    O92     O    0.41702   0.25213   0.59183   1.000
    O93     O    0.45894   0.11504   0.39982   1.000
    O94     O    0.39523   0.28756   0.38891   1.000
    N95     N    0.06117   0.30622   0.50223   1.000
    O96     O    0.98782   0.35082   0.59630   1.000
    O97     O    0.08295   0.24788   0.40819   1.000
    O98     O    0.07796   0.24099   0.62749   1.000
    O99     O    0.01617   0.30416   0.60765   1.000
    O100    O    0.04490   0.36932   0.39497   1.000
    O101    O    0.10473   0.21245   0.61112   1.000
    O102    O    0.04102   0.38496   0.60021   1.000
    N103    N    0.80616   0.06128   0.00227   1.000
    O104    O    0.74764   0.08277   0.90827   1.000
    O105    O    0.88502   0.04138   0.10024   1.000
    O106    O    0.86914   0.04465   0.89501   1.000
    O107    O    0.80430   0.01642   0.10762   1.000
    O108    O    0.74108   0.07824   0.12746   1.000
    O109    O    0.85103   0.98810   0.09630   1.000
    O110    O    0.71255   0.10521   0.11107   1.000
    N111    N    0.56116   0.30622   0.50220   1.000
    O112    O    0.58294   0.24788   0.40818   1.000
    O113    O    0.54102   0.38496   0.58769   1.000
    O114    O    0.48782   0.35082   0.59628   1.000
    O115    O    0.51617   0.30417   0.60764   1.000
    O116    O    0.57795   0.24099   0.62748   1.000
    O117    O    0.60473   0.21245   0.61110   1.000
    O118    O    0.54490   0.36932   0.39497   1.000
    N119    N    0.19380   0.43872   0.99754   1.000
    O120    O    0.28741   0.39480   0.88885   1.000
    O121    O    0.14893   0.51189   0.90362   1.000
    O122    O    0.11494   0.45862   0.89967   1.000
    O123    O    0.13082   0.45535   0.10491   1.000
    O124    O    0.25231   0.41723   0.09165   1.000
    O125    O    0.19566   0.48359   0.89230   1.000
    O126    O    0.25888   0.42176   0.87246   1.000
    N127    N    0.93880   0.69378   0.49780   1.000
    O128    O    0.95506   0.63068   0.60505   1.000
    O129    O    0.89523   0.78755   0.38891   1.000
    O130    O    0.91702   0.75211   0.59183   1.000
    O131    O    0.95894   0.61504   0.39982   1.000
    O132    O    0.01214   0.64918   0.40373   1.000
    O133    O    0.98379   0.69584   0.39238   1.000
    O134    O    0.92201   0.75901   0.37254   1.000
    N135    N    0.69380   0.93871   0.99754   1.000
    O136    O    0.75231   0.91722   0.09165   1.000
    O137    O    0.69566   0.98358   0.89230   1.000
    O138    O    0.75888   0.92175   0.87246   1.000
    O139    O    0.78741   0.89478   0.88885   1.000
    O140    O    0.63082   0.95534   0.10491   1.000
    O141    O    0.61494   0.95861   0.89967   1.000
    O142    O    0.64892   0.01189   0.90362   1.000
    N143    N    0.69380   0.43872   0.99738   1.000
    O144    O    0.69566   0.48358   0.89222   1.000
    O145    O    0.75888   0.42176   0.87238   1.000
    O146    O    0.75231   0.41723   0.09157   1.000
    O147    O    0.64892   0.51189   0.90354   1.000
    O148    O    0.78741   0.39479   0.88877   1.000
    O149    O    0.63082   0.45535   0.10483   1.000
loop_
    _geom_bond_atom_site_label_1
    _geom_bond_atom_site_label_2
    _geom_bond_distance
    _geom_bond_site_symmetry_2
    _ccdc_geom_bond_type
    N24    O25       1.94896  1_554   S
    Zr23   O25       2.98192      .   S
    N24    O26       1.92517  1_554   S
    Zr11   O26       2.92022      .   S
    N24    O27       2.27435      .   S
    Zr16   O27       3.37580  1_455   S
    N24    O28       1.84971      .   S
    Zr2    O28       2.40970      .   S
    N24    O29       2.21875      .   S
    Zr7    O29       3.25507      .   S
    N24    O30       1.83267      .   S
    Zr2    O30       2.44681      .   S
    N24    O31       2.21073      .   S
    Zr7    O31       3.28220      .   S
    N32    O33       1.94890      .   S
    Zr22   O33       2.98177      .   S
    N32    O34       2.21856      .   S
    Zr2    O34       3.25497      .   S
    N32    O35       1.92414      .   S
    Zr14   O35       2.91815      .   S
    N32    O36       1.83662      .   S
    Zr4    O36       2.45406  1_455   S
    N32    O37       2.21096      .   S
    Zr2    O37       3.28189      .   S
    N32    O38       1.85386  1_655   S
    Zr4    O38       2.41703      .   S
    N32    O39       2.27360      .   S
    Zr17   O39       3.37567  1_465   S
    N40    O41       1.92516  1_554   S
    Zr9    O41       2.92020      .   S
    N40    O42       2.27434      .   S
    Zr18   O42       3.37585      .   S
    N40    O43       1.83267      .   S
    Zr0    O43       2.44682      .   S
    N40    O44       2.21074      .   S
    Zr5    O44       3.28224      .   S
    N40    O45       1.84972      .   S
    Zr0    O45       2.40971      .   S
    N40    O46       2.21876      .   S
    Zr5    O46       3.25510      .   S
    N47    O48       1.92413      .   S
    Zr5    O48       2.91807      .   S
    N47    O49       1.85389  1_455   S
    Zr15   O49       2.41705      .   S
    N47    O50       2.21101      .   S
    Zr9    O50       3.28203      .   S
    N47    O51       1.83665      .   S
    Zr15   O51       2.45407  1_655   S
    N47    O52       1.94890      .   S
    Zr17   O52       2.98171      .   S
    N47    O53       2.27363      .   S
    Zr22   O53       3.37568  1_645   S
    N47    O54       2.21862      .   S
    Zr9    O54       3.25509      .   S
    N55    O56       2.21114      .   S
    Zr11   O56       3.28215      .   S
    N55    O57       1.83676      .   S
    Zr13   O57       2.45416      .   S
    N55    O58       1.94871      .   S
    Zr19   O58       2.98167      .   S
    N55    O59       2.21874      .   S
    Zr11   O59       3.25522      .   S
    N55    O60       1.92400      .   S
    Zr7    O60       2.91795      .   S
    N55    O61       2.27376      .   S
    Zr20   O61       3.37581  1_545   S
    N55    O62       1.85401      .   S
    Zr13   O62       2.41713      .   S
    N63    O64       2.21876      .   S
    Zr4    O64       3.25510      .   S
    N63    O65       1.83270      .   S
    Zr1    O65       2.44701  1_565   S
    N63    O66       2.21074      .   S
    Zr4    O66       3.28224      .   S
    N63    O67       2.27429      .   S
    Zr19   O67       3.37570  1_565   S
    N63    O68       1.94896  1_554   S
    Zr20   O68       2.98191      .   S
    N63    O69       1.84980  1_545   S
    Zr1    O69       2.40982      .   S
    N63    O70       1.92516  1_554   S
    Zr8    O70       2.92019      .   S
    N71    O72       1.83112      .   S
    Zr8    O72       2.44587  1_545   S
    N71    O73       2.20920      .   S
    Zr13   O73       3.28089      .   S
    N71    O74       1.84839  1_565   S
    Zr8    O74       2.40854      .   S
    N71    O75       1.95045  1_556   S
    Zr17   O75       2.98319      .   S
    N71    O76       2.21744      .   S
    Zr13   O76       3.25359      .   S
    N71    O77       2.27289      .   S
    Zr22   O77       3.37432  1_645   S
    N71    O78       1.92674  1_556   S
    Zr1    O78       2.92164      .   S
    N79    O80       1.85362      .   S
    Zr7    O80       2.41672      .   S
    N79    O81       2.27322      .   S
    Zr18   O81       3.37510      .   S
    N79    O82       1.92447      .   S
    Zr13   O82       2.91845      .   S
    N79    O83       1.83628      .   S
    Zr7    O83       2.45383      .   S
    N79    O84       2.21063      .   S
    Zr1    O84       3.28161      .   S
    N79    O85       2.22063      .   S
    Zr1    O85       3.25199      .   S
    N79    O86       1.78602      .   S
    Zr21   O86       2.59256      .   S
    N87    O88       1.85389      .   S
    Zr6    O88       2.41694      .   S
    N87    O89       1.94894      .   S
    Zr20   O89       2.98182      .   S
    N87    O90       1.83658      .   S
    Zr6    O90       2.45404      .   S
    N87    O91       2.21092      .   S
    Zr0    O91       3.28187      .   S
    N87    O92       1.92418      .   S
    Zr12   O92       2.91819      .   S
    N87    O93       2.27358      .   S
    Zr19   O93       3.37565  1_565   S
    N87    O94       2.21854      .   S
    Zr0    O94       3.25493      .   S
    N95    O96       1.85389  1_455   S
    Zr14   O96       2.41706      .   S
    N95    O97       1.92413      .   S
    Zr4    O97       2.91807      .   S
    N95    O98       2.21101      .   S
    Zr8    O98       3.28202      .   S
    N95    O99       1.83665      .   S
    Zr14   O99       2.45408  1_655   S
    N95    O100      1.94890      .   S
    Zr16   O100      2.98171      .   S
    N95    O101      2.21862      .   S
    Zr8    O101      3.25509      .   S
    N95    O102      2.27357      .   S
    Zr23   O102      3.37549  1_655   S
    N103   O104      1.92516  1_554   S
    Zr10   O104      2.92021      .   S
    N103   O105      2.27433      .   S
    Zr17   O105      3.37574  1_465   S
    N103   O106      1.94896  1_554   S
    Zr22   O106      2.98192      .   S
    N103   O107      1.83269      .   S
    Zr3    O107      2.44700  1_565   S
    N103   O108      2.21073      .   S
    Zr6    O108      3.28220      .   S
    N103   O109      1.84979  1_545   S
    Zr3    O109      2.40981      .   S
    N103   O110      2.21875      .   S
    Zr6    O110      3.25507      .   S
    N111   O112      1.92395      .   S
    Zr6    O112      2.91790      .   S
    N111   O113      2.11664      .   S
    Zr21   O113      2.91188      .   S
    N111   O114      1.85405      .   S
    Zr12   O114      2.41717      .   S
    N111   O115      1.83681      .   S
    Zr12   O115      2.45420      .   S
    N111   O116      2.21119      .   S
    Zr10   O116      3.28219      .   S
    N111   O117      2.21878      .   S
    Zr10   O117      3.25527      .   S
    N111   O118      1.94863      .   S
    Zr18   O118      2.98154      .   S
    N119   O120      2.21743      .   S
    Zr12   O120      3.25358      .   S
    N119   O121      1.84831      .   S
    Zr9    O121      2.40842      .   S
    N119   O122      2.27297      .   S
    Zr23   O122      3.37430  1_655   S
    N119   O123      1.95045  1_556   S
    Zr16   O123      2.98319      .   S
    N119   O124      1.92675  1_556   S
    Zr0    O124      2.92166      .   S
    N119   O125      1.83109      .   S
    Zr9    O125      2.44568      .   S
    N119   O126      2.20919      .   S
    Zr12   O126      3.28087      .   S
    N127   O128      1.94891      .   S
    Zr23   O128      2.98178      .   S
    N127   O129      2.21855      .   S
    Zr3    O129      3.25496      .   S
    N127   O130      1.92415      .   S
    Zr15   O130      2.91817      .   S
    N127   O131      2.27353      .   S
    Zr16   O131      3.37547  1_455   S
    N127   O132      1.85391  1_655   S
    Zr5    O132      2.41697      .   S
    N127   O133      1.83662      .   S
    Zr5    O133      2.45404  1_455   S
    N127   O134      2.21095      .   S
    Zr3    O134      3.28188      .   S
    N135   O136      1.92673  1_556   S
    Zr3    O136      2.92162      .   S
    N135   O137      1.83112      .   S
    Zr10   O137      2.44587  1_545   S
    N135   O138      2.20920      .   S
    Zr15   O138      3.28093      .   S
    N135   O139      2.21746      .   S
    Zr15   O139      3.25362      .   S
    N135   O140      1.95044  1_556   S
    Zr19   O140      2.98317      .   S
    N135   O141      2.27288      .   S
    Zr20   O141      3.37424  1_545   S
    N135   O142      1.84837  1_565   S
    Zr10   O142      2.40856      .   S
    N143   O144      1.82995      .   S
    Zr11   O144      2.44489      .   S
    N143   O145      2.20805      .   S
    Zr14   O145      3.27993      .   S
    N143   O146      1.92790  1_556   S
    Zr2    O146      2.92266      .   S
    N143   O147      1.84725      .   S
    Zr11   O147      2.40758      .   S
    N143   O148      2.21647      .   S
    Zr14   O148      3.25250      .   S
    N143   O149      1.95158  1_556   S
    Zr18   O149      2.98419      .   S
