# CIF file generated by openbabel 2.4.90, see http://openbabel.sf.net
data_I
_chemical_name_common ''
_cell_length_a 17.005
_cell_length_b 18.735
_cell_length_c 19.368
_cell_angle_alpha 90.005
_cell_angle_beta 90.013
_cell_angle_gamma 101.51
_space_group_name_H-M_alt 'P 1'
_space_group_name_Hall 'P 1'
loop_
    _symmetry_equiv_pos_as_xyz
    x,y,z
loop_
    _atom_site_label
    _atom_site_type_symbol
    _atom_site_fract_x
    _atom_site_fract_y
    _atom_site_fract_z
    _atom_site_occupancy
    Cd0     Cd   0.65251   0.99308   0.05730   1.000
    Cd1     Cd   0.34732   0.50697   0.55731   1.000
    Cd2     Cd   0.84729   0.50694   0.55731   1.000
    Cd3     Cd   0.34732   0.00694   0.94280   1.000
    Cd4     Cd   0.84736   0.00692   0.94280   1.000
    Cd5     Cd   0.15253   0.49305   0.44279   1.000
    Cd6     Cd   0.65256   0.49307   0.44279   1.000
    Cd7     Cd   0.15255   0.99309   0.05731   1.000
    C8      C    0.33661   0.40864   0.44641   1.000
    C9      C    0.83658   0.40859   0.44641   1.000
    C10     C    0.44834   0.56649   0.67946   1.000
    C11     C    0.94834   0.56647   0.67945   1.000
    C12     C    0.16329   0.09139   0.94633   1.000
    C13     C    0.66329   0.09138   0.94630   1.000
    C14     C    0.05162   0.93354   0.17951   1.000
    C15     C    0.55160   0.93355   0.17951   1.000
    C16     C    0.16321   0.59139   0.55369   1.000
    C17     C    0.66327   0.59141   0.55370   1.000
    C18     C    0.05160   0.43351   0.32065   1.000
    C19     C    0.55158   0.43354   0.32066   1.000
    C20     C    0.33656   0.90861   0.05374   1.000
    C21     C    0.83663   0.90862   0.05372   1.000
    C22     C    0.44833   0.06644   0.82059   1.000
    C23     C    0.94832   0.06644   0.82059   1.000
    O24     O    0.28503   0.45007   0.44967   1.000
    O25     O    0.78499   0.45002   0.44965   1.000
    O26     O    0.39338   0.41261   0.48967   1.000
    O27     O    0.89335   0.41257   0.48960   1.000
    O28     O    0.38688   0.58097   0.64689   1.000
    O29     O    0.88688   0.58095   0.64688   1.000
    O30     O    0.48325   0.51541   0.66619   1.000
    O31     O    0.98325   0.51540   0.66617   1.000
    O32     O    0.21483   0.04992   0.94956   1.000
    O33     O    0.71485   0.04994   0.94900   1.000
    O34     O    0.10655   0.08745   0.98960   1.000
    O35     O    0.60654   0.08743   0.98961   1.000
    O36     O    0.11306   0.91908   0.14692   1.000
    O37     O    0.61302   0.91907   0.14691   1.000
    O38     O    0.01671   0.98463   0.16620   1.000
    O39     O    0.51670   0.98465   0.16628   1.000
    O40     O    0.21473   0.54991   0.55047   1.000
    O41     O    0.71483   0.54996   0.55046   1.000
    O42     O    0.10646   0.58745   0.51041   1.000
    O43     O    0.60654   0.58746   0.51041   1.000
    O44     O    0.11309   0.41905   0.35318   1.000
    O45     O    0.61306   0.41907   0.35320   1.000
    O46     O    0.01671   0.48460   0.33395   1.000
    O47     O    0.51670   0.48464   0.33394   1.000
    O48     O    0.28495   0.95001   0.05045   1.000
    O49     O    0.78503   0.95004   0.05044   1.000
    O50     O    0.39334   0.91259   0.01049   1.000
    O51     O    0.89339   0.91258   0.01048   1.000
    O52     O    0.38693   0.08093   0.85320   1.000
    O53     O    0.88691   0.08091   0.85320   1.000
    O54     O    0.48324   0.01534   0.83380   1.000
    O55     O    0.98323   0.01533   0.83378   1.000
    Ts56    Ts   0.67477   0.02431   0.08164   1.000
    Ts57    Ts   0.63553   0.96047   0.03283   1.000
    Ts58    Ts   0.32508   0.47572   0.58166   1.000
    Ts59    Ts   0.36431   0.53957   0.53282   1.000
    Ts60    Ts   0.82504   0.47570   0.58166   1.000
    Ts61    Ts   0.86427   0.53955   0.53283   1.000
    Ts62    Ts   0.32508   0.97569   0.91846   1.000
    Ts63    Ts   0.36431   0.03954   0.96727   1.000
    Ts64    Ts   0.82511   0.97569   0.91845   1.000
    Ts65    Ts   0.86434   0.03953   0.96727   1.000
    Ts66    Ts   0.17478   0.52430   0.41844   1.000
    Ts67    Ts   0.13554   0.46044   0.46728   1.000
    Ts68    Ts   0.67482   0.52432   0.41844   1.000
    Ts69    Ts   0.63554   0.46044   0.46726   1.000
    Ts70    Ts   0.17481   0.02433   0.08165   1.000
    Ts71    Ts   0.13557   0.96049   0.03283   1.000
    Og72    Og   0.33358   0.38994   0.42767   1.000
    Og73    Og   0.83356   0.38989   0.42767   1.000
    Og74    Og   0.45820   0.58396   0.69882   1.000
    Og75    Og   0.95819   0.58394   0.69881   1.000
    Og76    Og   0.16631   0.11009   0.92759   1.000
    Og77    Og   0.66631   0.11009   0.92757   1.000
    Og78    Og   0.04178   0.91607   0.19887   1.000
    Og79    Og   0.54175   0.91609   0.19884   1.000
    Og80    Og   0.16624   0.61009   0.57243   1.000
    Og81    Og   0.66629   0.61011   0.57243   1.000
    Og82    Og   0.04173   0.41605   0.30127   1.000
    Og83    Og   0.54171   0.41607   0.30130   1.000
    Og84    Og   0.33354   0.88991   0.07247   1.000
    Og85    Og   0.83361   0.88993   0.07246   1.000
    Og86    Og   0.45817   0.08391   0.80124   1.000
    Og87    Og   0.95816   0.08391   0.80124   1.000
loop_
    _geom_bond_atom_site_label_1
    _geom_bond_atom_site_label_2
    _geom_bond_distance
    _geom_bond_site_symmetry_2
    _ccdc_geom_bond_type
    O51    C21       1.26902      .   S
    O51    Cd4       2.45096  1_564   S
    O50    C20       1.26923      .   S
    O50    Cd3       2.45093  1_564   S
    O49    C21       1.28356      .   S
    O49    Cd4       2.48116  1_564   S
    O48    C20       1.28358      .   S
    O48    Cd3       2.48186  1_564   S
    Cd0    O37       2.23940      .   S
    Cd0    O33       2.49180  1_564   S
    Cd0    O35       2.45074  1_564   S
    Cd7    O36       2.23944      .   S
    Cd7    O32       2.48232  1_564   S
    Cd7    O34       2.45126  1_564   S
    O37    C15       1.29479      .   S
    O36    C14       1.29481      .   S
    O38    C14       1.24970      .   S
    O39    C15       1.24944      .   S
    C18    O46       1.24945      .   S
    C18    O44       1.29479      .   S
    C19    O47       1.24942      .   S
    C19    O45       1.29482      .   S
    O44    Cd5       2.23878      .   S
    O45    Cd6       2.23855      .   S
    Cd5    O42       2.45146      .   S
    Cd5    O40       2.48027      .   S
    Cd6    O43       2.45103      .   S
    Cd6    O41       2.48085      .   S
    C9     O25       1.28357      .   S
    C9     O27       1.26808      .   S
    C8     O24       1.28355      .   S
    C8     O26       1.26910      .   S
    O25    Cd2       2.48096      .   S
    O24    Cd1       2.48043      .   S
    O27    Cd2       2.45191      .   S
    O26    Cd1       2.45100      .   S
    O42    C16       1.26900      .   S
    O43    C17       1.26897      .   S
    O41    C17       1.28352      .   S
    O40    C16       1.28356      .   S
    Cd2    O29       2.23869      .   S
    Cd1    O28       2.23865      .   S
    O29    C11       1.29482      .   S
    O28    C10       1.29482      .   S
    O31    C11       1.24940      .   S
    O30    C10       1.24941      .   S
    C22    O54       1.24941      .   S
    C22    O52       1.29460      .   S
    C23    O55       1.24940      .   S
    C23    O53       1.29475      .   S
    O53    Cd4       2.23920      .   S
    O52    Cd3       2.23945      .   S
    C13    O33       1.28300      .   S
    C13    O35       1.26977      .   S
    C12    O32       1.28348      .   S
    C12    O34       1.26912      .   S
    O24    Cd5       2.54299      .   S
    O25    Cd6       2.54265      .   S
    O32    Cd3       2.54300      .   S
    O33    Cd4       2.54288      .   S
    O40    Cd1       2.54405      .   S
    O41    Cd2       2.54263      .   S
    O48    Cd7       2.54233      .   S
    O49    Cd0       2.54392      .   S
    Cd0    Ts56      0.78702  1_565   S
    Cd0    Ts57      0.78138      .   S
    Cd1    Ts58      0.78729      .   S
    Cd1    Ts59      0.78177      .   S
    Cd2    Ts60      0.78734      .   S
    Cd2    Ts61      0.78179      .   S
    Cd3    Ts62      0.78707  1_545   S
    Cd3    Ts63      0.78155      .   S
    Cd4    Ts64      0.78699  1_545   S
    Cd4    Ts65      0.78141      .   S
    Cd5    Ts66      0.78747      .   S
    Cd5    Ts67      0.78194      .   S
    Cd6    Ts68      0.78755      .   S
    Cd6    Ts69      0.78202      .   S
    Cd7    Ts70      0.78718  1_565   S
    Cd7    Ts71      0.78150      .   S
    C8     Og72      0.49983      .   S
    C9     Og73      0.49990      .   S
    C10    Og74      0.50380      .   S
    C11    Og75      0.50383      .   S
    C12    Og76      0.50003      .   S
    C13    Og77      0.49988      .   S
    C14    Og78      0.50389      .   S
    C15    Og79      0.50344      .   S
    C16    Og80      0.49986      .   S
    C17    Og81      0.49983      .   S
    C18    Og82      0.50417      .   S
    C19    Og83      0.50383      .   S
    C20    Og84      0.49987      .   S
    C21    Og85      0.49990      .   S
    C22    Og86      0.50380      .   S
    C23    Og87      0.50381      .   S
