# CIF file generated by openbabel 2.4.90, see http://openbabel.sf.net
data_I
_chemical_name_common ''
_cell_length_a 17.005
_cell_length_b 18.735
_cell_length_c 19.368
_cell_angle_alpha 90.005
_cell_angle_beta 90.013
_cell_angle_gamma 101.51
_space_group_name_H-M_alt 'P 1'
_space_group_name_Hall 'P 1'
loop_
    _symmetry_equiv_pos_as_xyz
    x,y,z
loop_
    _atom_site_label
    _atom_site_type_symbol
    _atom_site_fract_x
    _atom_site_fract_y
    _atom_site_fract_z
    _atom_site_occupancy
    C0      C    0.33661   0.40864   0.44641   1.000
    C1      C    0.83658   0.40859   0.44641   1.000
    C2      C    0.44834   0.56649   0.67946   1.000
    C3      C    0.94834   0.56647   0.67945   1.000
    C4      C    0.16329   0.09139   0.94633   1.000
    C5      C    0.66329   0.09138   0.94630   1.000
    C6      C    0.05162   0.93354   0.17951   1.000
    C7      C    0.55160   0.93355   0.17951   1.000
    C8      C    0.16321   0.59139   0.55369   1.000
    C9      C    0.66327   0.59141   0.55370   1.000
    C10     C    0.05160   0.43351   0.32065   1.000
    C11     C    0.55158   0.43354   0.32066   1.000
    C12     C    0.33656   0.90861   0.05374   1.000
    C13     C    0.83663   0.90862   0.05372   1.000
    C14     C    0.44833   0.06644   0.82059   1.000
    C15     C    0.94832   0.06644   0.82059   1.000
