# CIF file generated by openbabel 2.4.90, see http://openbabel.sf.net
data_I
_chemical_name_common ''
_cell_length_a 17.005
_cell_length_b 18.735
_cell_length_c 19.368
_cell_angle_alpha 90.005
_cell_angle_beta 90.013
_cell_angle_gamma 101.51
_space_group_name_H-M_alt 'P 1'
_space_group_name_Hall 'P 1'
loop_
    _symmetry_equiv_pos_as_xyz
    x,y,z
loop_
    _atom_site_label
    _atom_site_type_symbol
    _atom_site_fract_x
    _atom_site_fract_y
    _atom_site_fract_z
    _atom_site_occupancy
    Zr0     Zr   0.15255   0.99309   0.05731   1.000
    Zr1     Zr   0.65251   0.99308   0.05730   1.000
    Zr2     Zr   0.34732   0.50697   0.55731   1.000
    Zr3     Zr   0.84729   0.50694   0.55731   1.000
    Zr4     Zr   0.34732   0.00694   0.94280   1.000
    Zr5     Zr   0.84736   0.00692   0.94280   1.000
    Zr6     Zr   0.15253   0.49305   0.44279   1.000
    Zr7     Zr   0.65256   0.49307   0.44279   1.000
    Zr8     Zr   0.33661   0.40864   0.44641   1.000
    Zr9     Zr   0.83658   0.40859   0.44641   1.000
    Zr10    Zr   0.44834   0.56649   0.67946   1.000
    Zr11    Zr   0.94834   0.56647   0.67945   1.000
    Zr12    Zr   0.16329   0.09139   0.94633   1.000
    Zr13    Zr   0.66329   0.09138   0.94630   1.000
    Zr14    Zr   0.05162   0.93354   0.17951   1.000
    Zr15    Zr   0.55160   0.93355   0.17951   1.000
    Zr16    Zr   0.16321   0.59139   0.55369   1.000
    Zr17    Zr   0.66327   0.59141   0.55370   1.000
    Zr18    Zr   0.05160   0.43351   0.32065   1.000
    Zr19    Zr   0.55158   0.43354   0.32066   1.000
    Zr20    Zr   0.33656   0.90861   0.05374   1.000
    Zr21    Zr   0.83663   0.90862   0.05372   1.000
    Zr22    Zr   0.44833   0.06644   0.82059   1.000
    Zr23    Zr   0.94832   0.06644   0.82059   1.000
    Zr24    Zr   0.28503   0.45007   0.44967   1.000
    Zr25    Zr   0.78499   0.45002   0.44965   1.000
    Zr26    Zr   0.39338   0.41261   0.48967   1.000
    Zr27    Zr   0.89335   0.41257   0.48960   1.000
    Zr28    Zr   0.38688   0.58097   0.64689   1.000
    Zr29    Zr   0.88688   0.58095   0.64688   1.000
    Zr30    Zr   0.48325   0.51541   0.66619   1.000
    Zr31    Zr   0.98325   0.51540   0.66617   1.000
    Zr32    Zr   0.21483   0.04992   0.94956   1.000
    Zr33    Zr   0.71485   0.04994   0.94900   1.000
    Zr34    Zr   0.10655   0.08745   0.98960   1.000
    Zr35    Zr   0.60654   0.08743   0.98961   1.000
    Zr36    Zr   0.11306   0.91908   0.14692   1.000
    Zr37    Zr   0.61302   0.91907   0.14691   1.000
    Zr38    Zr   0.01671   0.98463   0.16620   1.000
    Zr39    Zr   0.51670   0.98465   0.16628   1.000
    Zr40    Zr   0.21473   0.54991   0.55047   1.000
    Zr41    Zr   0.71483   0.54996   0.55046   1.000
    Zr42    Zr   0.10646   0.58745   0.51041   1.000
    Zr43    Zr   0.60654   0.58746   0.51041   1.000
    Zr44    Zr   0.11309   0.41905   0.35318   1.000
    Zr45    Zr   0.61306   0.41907   0.35320   1.000
    Zr46    Zr   0.01671   0.48460   0.33395   1.000
    Zr47    Zr   0.51670   0.48464   0.33394   1.000
    Zr48    Zr   0.28495   0.95001   0.05045   1.000
    Zr49    Zr   0.78503   0.95004   0.05044   1.000
    Zr50    Zr   0.39334   0.91259   0.01049   1.000
    Zr51    Zr   0.89339   0.91258   0.01048   1.000
    Zr52    Zr   0.38693   0.08093   0.85320   1.000
    Zr53    Zr   0.88691   0.08091   0.85320   1.000
    Zr54    Zr   0.48324   0.01534   0.83380   1.000
    Zr55    Zr   0.98323   0.01533   0.83378   1.000
    O56     O    0.86501   0.91060   0.03210   1.000
    O57     O    0.87038   0.95975   0.97664   1.000
    O58     O    0.36495   0.91060   0.03212   1.000
    O59     O    0.37033   0.95976   0.97665   1.000
    O60     O    0.81083   0.92933   0.05208   1.000
    O61     O    0.81620   0.97848   0.99662   1.000
    O62     O    0.31076   0.92931   0.05210   1.000
    O63     O    0.31614   0.97847   0.99663   1.000
    O64     O    0.63276   0.95607   0.10211   1.000
    O65     O    0.68368   0.02151   0.00315   1.000
    O66     O    0.62953   0.04025   0.02346   1.000
    O67     O    0.13280   0.95608   0.10212   1.000
    O68     O    0.18369   0.02151   0.00344   1.000
    O69     O    0.12955   0.04027   0.02346   1.000
    O70     O    0.58231   0.92631   0.16321   1.000
    O71     O    0.08234   0.92631   0.16322   1.000
    O72     O    0.03417   0.95909   0.17286   1.000
    O73     O    0.53415   0.95910   0.17290   1.000
    O74     O    0.03415   0.45906   0.32730   1.000
    O75     O    0.08234   0.42628   0.33692   1.000
    O76     O    0.53414   0.45909   0.32730   1.000
    O77     O    0.58232   0.42631   0.33693   1.000
    O78     O    0.13281   0.45605   0.39799   1.000
    O79     O    0.63281   0.45607   0.39800   1.000
    O80     O    0.12950   0.54025   0.47660   1.000
    O81     O    0.18363   0.52148   0.49663   1.000
    O82     O    0.62955   0.54026   0.47660   1.000
    O83     O    0.68369   0.52151   0.49663   1.000
    O84     O    0.81079   0.42930   0.44803   1.000
    O85     O    0.86496   0.41058   0.46801   1.000
    O86     O    0.31082   0.42936   0.44804   1.000
    O87     O    0.36500   0.41063   0.46804   1.000
    O88     O    0.81614   0.47848   0.50348   1.000
    O89     O    0.31618   0.47852   0.50349   1.000
    O90     O    0.87032   0.45976   0.52346   1.000
    O91     O    0.37035   0.45979   0.52349   1.000
    O92     O    0.13483   0.58942   0.53205   1.000
    O93     O    0.63490   0.58943   0.53206   1.000
    O94     O    0.68905   0.57068   0.55208   1.000
    O95     O    0.18897   0.57065   0.55208   1.000
    O96     O    0.86708   0.54395   0.60210   1.000
    O97     O    0.36710   0.54397   0.60210   1.000
    O98     O    0.91761   0.57371   0.66317   1.000
    O99     O    0.41761   0.57373   0.66318   1.000
    O100    O    0.96579   0.54094   0.67281   1.000
    O101    O    0.46580   0.54095   0.67283   1.000
    O102    O    0.46578   0.04089   0.82720   1.000
    O103    O    0.41763   0.07368   0.83690   1.000
    O104    O    0.96577   0.04088   0.82719   1.000
    O105    O    0.91762   0.07367   0.83690   1.000
    O106    O    0.86714   0.04392   0.89800   1.000
    O107    O    0.36713   0.04393   0.89800   1.000
    O108    O    0.68907   0.07066   0.94765   1.000
    O109    O    0.63492   0.08941   0.96796   1.000
    O110    O    0.18906   0.07066   0.94795   1.000
    O111    O    0.13492   0.08942   0.96797   1.000
    O112    O    0.21878   0.47156   0.44623   1.000
    O113    O    0.71878   0.47154   0.44622   1.000
    O114    O    0.28108   0.02843   0.94618   1.000
    O115    O    0.78111   0.02843   0.94590   1.000
    O116    O    0.28103   0.52844   0.55389   1.000
    O117    O    0.78106   0.52845   0.55388   1.000
    O118    O    0.21875   0.97155   0.05388   1.000
    O119    O    0.71877   0.97156   0.05387   1.000
    N120    N    0.54692   0.25392   0.63349   1.000
    O121    O    0.58697   0.34903   0.55650   1.000
    O122    O    0.50501   0.17329   0.71253   1.000
    N123    N    0.95294   0.74605   0.36662   1.000
    O124    O    0.91285   0.65095   0.44360   1.000
    O125    O    0.99490   0.82670   0.28758   1.000
    N126    N    0.78325   0.21423   0.25964   1.000
    O127    O    0.80765   0.29739   0.33897   1.000
    O128    O    0.73458   0.12708   0.17672   1.000
    N129    N    0.45295   0.74606   0.36660   1.000
    O130    O    0.41288   0.65096   0.44359   1.000
    O131    O    0.49489   0.82671   0.28755   1.000
    N132    N    0.95288   0.24603   0.13311   1.000
    O133    O    0.99484   0.32667   0.21234   1.000
    O134    O    0.91285   0.15093   0.05631   1.000
    N135    N    0.21662   0.28578   0.75963   1.000
    O136    O    0.26529   0.37294   0.67673   1.000
    O137    O    0.19222   0.20261   0.83892   1.000
    N138    N    0.78328   0.71427   0.24044   1.000
    O139    O    0.80769   0.79742   0.16113   1.000
    O140    O    0.73461   0.62711   0.32335   1.000
    N141    N    0.71661   0.28577   0.75965   1.000
    O142    O    0.69222   0.20260   0.83892   1.000
    O143    O    0.76526   0.37292   0.67674   1.000
    N144    N    0.21664   0.78576   0.74044   1.000
    O145    O    0.19220   0.70260   0.66112   1.000
    O146    O    0.26530   0.87292   0.82336   1.000
    N147    N    0.71663   0.78578   0.74044   1.000
    O148    O    0.69222   0.70262   0.66112   1.000
    O149    O    0.76531   0.87293   0.82336   1.000
    N150    N    0.54697   0.75398   0.86661   1.000
    O151    O    0.50505   0.67334   0.78755   1.000
    O152    O    0.58701   0.84908   0.94360   1.000
    N153    N    0.28326   0.71425   0.24044   1.000
    O154    O    0.23459   0.62709   0.32335   1.000
    O155    O    0.30765   0.79740   0.16114   1.000
    N156    N    0.28325   0.21427   0.25968   1.000
    O157    O    0.30766   0.29743   0.33899   1.000
    O158    O    0.23460   0.12711   0.17675   1.000
    N159    N    0.45290   0.24605   0.13312   1.000
    O160    O    0.49484   0.32669   0.21237   1.000
    O161    O    0.41285   0.15095   0.05632   1.000
    N162    N    0.04698   0.75398   0.86659   1.000
    O163    O    0.00505   0.67332   0.78754   1.000
    O164    O    0.08703   0.84908   0.94359   1.000
    N165    N    0.04691   0.25394   0.63347   1.000
    O166    O    0.00500   0.17329   0.71251   1.000
    O167    O    0.08698   0.34904   0.55649   1.000
loop_
    _geom_bond_atom_site_label_1
    _geom_bond_atom_site_label_2
    _geom_bond_distance
    _geom_bond_site_symmetry_2
    _ccdc_geom_bond_type
    Zr51   O56       0.63451      .   S
    Zr21   O56       0.63451      .   S
    Zr51   O57       1.22548  1_554   S
    Zr5    O57       1.22548  1_545   S
    Zr50   O58       0.63461      .   S
    Zr20   O58       0.63461      .   S
    Zr50   O59       1.22546  1_554   S
    Zr4    O59       1.22546  1_545   S
    Zr49   O60       0.64178      .   S
    Zr21   O60       0.64178      .   S
    Zr49   O61       1.24058  1_554   S
    Zr5    O61       1.24058  1_545   S
    Zr48   O62       0.64179      .   S
    Zr20   O62       0.64179      .   S
    Zr48   O63       1.24093  1_554   S
    Zr4    O63       1.24093  1_545   S
    Zr1    O64       1.11970      .   S
    Zr37   O64       1.11970      .   S
    Zr1    O65       1.24590  1_565   S
    Zr33   O65       1.24590  1_556   S
    Zr1    O66       1.22537  1_565   S
    Zr35   O66       1.22537  1_556   S
    Zr0    O67       1.11972      .   S
    Zr36   O67       1.11972      .   S
    Zr0    O68       1.24116  1_565   S
    Zr32   O68       1.24116  1_556   S
    Zr0    O69       1.22563  1_565   S
    Zr34   O69       1.22563  1_556   S
    Zr37   O70       0.64740      .   S
    Zr15   O70       0.64740      .   S
    Zr36   O71       0.64741      .   S
    Zr14   O71       0.64741      .   S
    Zr38   O72       0.62485      .   S
    Zr14   O72       0.62485      .   S
    Zr39   O73       0.62472      .   S
    Zr15   O73       0.62472      .   S
    Zr18   O74       0.62472      .   S
    Zr46   O74       0.62472      .   S
    Zr18   O75       0.64739      .   S
    Zr44   O75       0.64739      .   S
    Zr19   O76       0.62471      .   S
    Zr47   O76       0.62471      .   S
    Zr19   O77       0.64741      .   S
    Zr45   O77       0.64741      .   S
    Zr44   O78       1.11939      .   S
    Zr6    O78       1.11939      .   S
    Zr45   O79       1.11928      .   S
    Zr7    O79       1.11928      .   S
    Zr6    O80       1.22573      .   S
    Zr42   O80       1.22573      .   S
    Zr6    O81       1.24013      .   S
    Zr40   O81       1.24013      .   S
    Zr7    O82       1.22551      .   S
    Zr43   O82       1.22551      .   S
    Zr7    O83       1.24042      .   S
    Zr41   O83       1.24042      .   S
    Zr9    O84       0.64179      .   S
    Zr25   O84       0.64179      .   S
    Zr9    O85       0.63404      .   S
    Zr27   O85       0.63404      .   S
    Zr8    O86       0.64178      .   S
    Zr24   O86       0.64178      .   S
    Zr8    O87       0.63455      .   S
    Zr26   O87       0.63455      .   S
    Zr25   O88       1.24048      .   S
    Zr3    O88       1.24048      .   S
    Zr24   O89       1.24022      .   S
    Zr2    O89       1.24022      .   S
    Zr27   O90       1.22595      .   S
    Zr3    O90       1.22595      .   S
    Zr26   O91       1.22550      .   S
    Zr2    O91       1.22550      .   S
    Zr42   O92       0.63450      .   S
    Zr16   O92       0.63450      .   S
    Zr43   O93       0.63448      .   S
    Zr17   O93       0.63448      .   S
    Zr41   O94       0.64176      .   S
    Zr17   O94       0.64176      .   S
    Zr40   O95       0.64178      .   S
    Zr16   O95       0.64178      .   S
    Zr3    O96       1.11935      .   S
    Zr29   O96       1.11935      .   S
    Zr2    O97       1.11933      .   S
    Zr28   O97       1.11933      .   S
    Zr29   O98       0.64741      .   S
    Zr11   O98       0.64741      .   S
    Zr28   O99       0.64741      .   S
    Zr10   O99       0.64741      .   S
    Zr31   O100      0.62470      .   S
    Zr11   O100      0.62470      .   S
    Zr30   O101      0.62471      .   S
    Zr10   O101      0.62471      .   S
    Zr22   O102      0.62471      .   S
    Zr54   O102      0.62471      .   S
    Zr22   O103      0.64730      .   S
    Zr52   O103      0.64730      .   S
    Zr23   O104      0.62470      .   S
    Zr55   O104      0.62470      .   S
    Zr23   O105      0.64737      .   S
    Zr53   O105      0.64737      .   S
    Zr53   O106      1.11960      .   S
    Zr5    O106      1.11960      .   S
    Zr52   O107      1.11973      .   S
    Zr4    O107      1.11973      .   S
    Zr13   O108      0.64150      .   S
    Zr33   O108      0.64150      .   S
    Zr13   O109      0.63489      .   S
    Zr35   O109      0.63489      .   S
    Zr12   O110      0.64174      .   S
    Zr32   O110      0.64174      .   S
    Zr12   O111      0.63456      .   S
    Zr34   O111      0.63456      .   S
    Zr24   O112      1.27149      .   S
    Zr6    O112      1.27149      .   S
    Zr25   O113      1.27133      .   S
    Zr7    O113      1.27133      .   S
    Zr32   O114      1.27150      .   S
    Zr4    O114      1.27150      .   S
    Zr33   O115      1.27144      .   S
    Zr5    O115      1.27144      .   S
    Zr40   O116      1.27203      .   S
    Zr2    O116      1.27203      .   S
    Zr41   O117      1.27132      .   S
    Zr3    O117      1.27132      .   S
    Zr48   O118      1.27116      .   S
    Zr0    O118      1.27116      .   S
    Zr49   O119      1.27196      .   S
    Zr1    O119      1.27196      .   S
    N120   O121      2.31927      .   S
    Zr7    O121      3.48959      .   S
    N120   O122      2.16907      .   S
    Zr22   O122      2.92373      .   S
    N123   O124      2.31915      .   S
    Zr3    O124      3.48919      .   S
    N123   O125      2.16923      .   S
    Zr14   O125      2.92401  1_455   S
    N126   O127      2.16823      .   S
    Zr9    O127      2.91589      .   S
    N126   O128      2.32157      .   S
    Zr1    O128      3.49280  1_565   S
    N129   O130      2.31914      .   S
    Zr2    O130      3.48914      .   S
    N129   O131      2.16939      .   S
    Zr15   O131      2.92351      .   S
    N132   O133      2.17156      .   S
    Zr18   O133      2.92677  1_455   S
    N132   O134      2.31633      .   S
    Zr5    O134      3.48581  1_556   S
    N135   O136      2.32186      .   S
    Zr2    O136      3.49357      .   S
    N135   O137      2.16826      .   S
    Zr12   O137      2.91612      .   S
    N138   O139      2.16820      .   S
    Zr21   O139      2.91586      .   S
    N138   O140      2.32209      .   S
    Zr7    O140      3.49415      .   S
    N141   O142      2.16797      .   S
    Zr13   O142      2.91561      .   S
    N141   O143      2.32185      .   S
    Zr3    O143      3.49362      .   S
    N144   O145      2.16821      .   S
    Zr16   O145      2.91582      .   S
    N144   O146      2.32166      .   S
    Zr4    O146      3.49300  1_545   S
    N147   O148      2.16822      .   S
    Zr17   O148      2.91577      .   S
    N147   O149      2.32160      .   S
    Zr5    O149      3.49284  1_545   S
    N150   O151      2.16900      .   S
    Zr10   O151      2.92364      .   S
    N150   O152      2.31874      .   S
    Zr1    O152      3.48813  1_554   S
    N153   O154      2.32207      .   S
    Zr6    O154      3.49403      .   S
    N153   O155      2.16816      .   S
    Zr20   O155      2.91578      .   S
    N156   O157      2.16814      .   S
    Zr8    O157      2.91570      .   S
    N156   O158      2.32172      .   S
    Zr0    O158      3.49315  1_565   S
    N159   O160      2.17176      .   S
    Zr19   O160      2.92648      .   S
    N159   O161      2.31645      .   S
    Zr4    O161      3.48613  1_556   S
    N162   O163      2.16909      .   S
    Zr11   O163      2.92377  1_655   S
    N162   O164      2.31890      .   S
    Zr0    O164      3.48849  1_554   S
    N165   O166      2.16934      .   S
    Zr23   O166      2.92402  1_655   S
    N165   O167      2.31893      .   S
    Zr6    O167      3.48916      .   S
