# CIF file generated by openbabel 2.4.90, see http://openbabel.sf.net
data_I
_chemical_name_common ''
_cell_length_a 12.549
_cell_length_b 22.954
_cell_length_c 14.84
_cell_angle_alpha 90
_cell_angle_beta 90
_cell_angle_gamma 89.999
_space_group_name_H-M_alt 'P 1'
_space_group_name_Hall 'P 1'
loop_
    _symmetry_equiv_pos_as_xyz
    x,y,z
loop_
    _atom_site_label
    _atom_site_type_symbol
    _atom_site_fract_x
    _atom_site_fract_y
    _atom_site_fract_z
    _atom_site_occupancy
    Mc0     Mc   0.63826   0.74074   0.12520   1.000
    Mc1     Mc   0.36253   0.25701   0.10278   1.000
    Mc2     Mc   0.36178   0.25928   0.87479   1.000
    Mc3     Mc   0.63751   0.74300   0.89721   1.000
    Ts4     Ts   0.00002   0.50001   0.99999   1.000
    Mc5     Mc   0.36254   0.75702   0.89721   1.000
    Mc6     Mc   0.63750   0.24299   0.10278   1.000
    Mc7     Mc   0.36179   0.75929   0.12520   1.000
    Mc8     Mc   0.63825   0.24073   0.87479   1.000
    Ts9     Ts   0.00002   0.00001   0.99999   1.000
    Mc10    Mc   0.36253   0.24299   0.60278   1.000
    Mc11    Mc   0.63826   0.75929   0.62519   1.000
    Mc12    Mc   0.36178   0.24073   0.37479   1.000
    Mc13    Mc   0.63751   0.75702   0.39721   1.000
    Ts14    Ts   0.00002   0.00001   0.49999   1.000
    Mc15    Mc   0.63825   0.25928   0.37479   1.000
    Mc16    Mc   0.36254   0.74300   0.39721   1.000
    Mc17    Mc   0.63750   0.25702   0.60278   1.000
    Mc18    Mc   0.36179   0.74073   0.62519   1.000
    Ts19    Ts   0.00002   0.50001   0.49999   1.000
