# CIF file generated by openbabel 2.4.90, see http://openbabel.sf.net
data_I
_chemical_name_common ''
_cell_length_a 12.549
_cell_length_b 22.954
_cell_length_c 14.84
_cell_angle_alpha 90
_cell_angle_beta 90
_cell_angle_gamma 89.999
_space_group_name_H-M_alt 'P 1'
_space_group_name_Hall 'P 1'
loop_
    _symmetry_equiv_pos_as_xyz
    x,y,z
loop_
    _atom_site_label
    _atom_site_type_symbol
    _atom_site_fract_x
    _atom_site_fract_y
    _atom_site_fract_z
    _atom_site_occupancy
    H0      H    0.07080   0.91128   0.85832   1.000
    H1      H    0.21180   0.83761   0.86240   1.000
    H2      H    0.21025   0.84323   0.15348   1.000
    H3      H    0.06913   0.91678   0.14972   1.000
    H4      H    0.92924   0.58874   0.85832   1.000
    H5      H    0.78825   0.66241   0.86240   1.000
    H6      H    0.78980   0.65679   0.15348   1.000
    H7      H    0.93092   0.58324   0.14972   1.000
    H8      H    0.07080   0.08873   0.64160   1.000
    H9      H    0.21179   0.16240   0.63751   1.000
    H10     H    0.21024   0.15678   0.34651   1.000
    H11     H    0.06912   0.08323   0.35027   1.000
    H12     H    0.92924   0.41127   0.64167   1.000
    H13     H    0.78825   0.33760   0.63751   1.000
    H14     H    0.78980   0.34323   0.34651   1.000
    H15     H    0.93091   0.41677   0.35027   1.000
    H16     H    0.92924   0.08874   0.14167   1.000
    H17     H    0.78824   0.16240   0.13751   1.000
    H18     H    0.78980   0.15678   0.84651   1.000
    H19     H    0.93091   0.08323   0.85027   1.000
    H20     H    0.07080   0.41127   0.14167   1.000
    H21     H    0.21179   0.33760   0.13751   1.000
    H22     H    0.21024   0.34322   0.84651   1.000
    H23     H    0.06912   0.41677   0.85027   1.000
    H24     H    0.92924   0.91128   0.35832   1.000
    H25     H    0.78825   0.83761   0.36248   1.000
    H26     H    0.78980   0.84323   0.65348   1.000
    H27     H    0.93092   0.91678   0.64972   1.000
    H28     H    0.07080   0.58874   0.35832   1.000
    H29     H    0.21179   0.66241   0.36248   1.000
    H30     H    0.21024   0.65678   0.65348   1.000
    H31     H    0.06913   0.58324   0.64972   1.000
    C32     C    0.18014   0.85812   0.08857   1.000
    C33     C    0.22226   0.83457   0.00826   1.000
    C34     C    0.34636   0.76678   0.93125   1.000
    C35     C    0.34563   0.76852   0.09081   1.000
    C36     C    0.18104   0.85503   0.92563   1.000
    C37     C    0.97387   0.96646   0.00105   1.000
    C38     C    0.90435   0.96309   0.08038   1.000
    C39     C    0.90648   0.96052   0.92070   1.000
    C40     C    0.10000   0.89971   0.08636   1.000
    C41     C    0.05935   0.91938   0.00370   1.000
    C42     C    0.10101   0.89664   0.92334   1.000
    C43     C    0.81991   0.64190   0.08857   1.000
    C44     C    0.77779   0.66546   0.00826   1.000
    C45     C    0.65368   0.73324   0.93125   1.000
    C46     C    0.65442   0.73150   0.09080   1.000
    C47     C    0.81901   0.64498   0.92563   1.000
    C48     C    0.02618   0.53356   0.00105   1.000
    C49     C    0.09570   0.53693   0.08038   1.000
    C50     C    0.09356   0.53950   0.92073   1.000
    C51     C    0.90005   0.60031   0.08636   1.000
    C52     C    0.94070   0.58064   0.00370   1.000
    C53     C    0.90648   0.53950   0.42070   1.000
    C54     C    0.10000   0.60031   0.58636   1.000
    C55     C    0.05934   0.58064   0.50370   1.000
    C56     C    0.89904   0.60338   0.92334   1.000
    C57     C    0.18013   0.14189   0.41142   1.000
    C58     C    0.22225   0.16545   0.49173   1.000
    C59     C    0.34635   0.23323   0.56874   1.000
    C60     C    0.34562   0.23149   0.40918   1.000
    C61     C    0.18103   0.14497   0.57430   1.000
    C62     C    0.97386   0.03356   0.49894   1.000
    C63     C    0.90434   0.03692   0.41961   1.000
    C64     C    0.90647   0.03949   0.57927   1.000
    C65     C    0.09999   0.10030   0.41363   1.000
    C66     C    0.05934   0.08063   0.49629   1.000
    C67     C    0.10100   0.10337   0.57665   1.000
    C68     C    0.81990   0.35811   0.41142   1.000
    C69     C    0.77779   0.33456   0.49173   1.000
    C70     C    0.65368   0.26678   0.56874   1.000
    C71     C    0.65442   0.26852   0.40918   1.000
    C72     C    0.81900   0.35503   0.57430   1.000
    C73     C    0.02617   0.46645   0.49894   1.000
    C74     C    0.09569   0.46308   0.41961   1.000
    C75     C    0.09356   0.46051   0.57927   1.000
    C76     C    0.90004   0.39970   0.41363   1.000
    C77     C    0.94070   0.41938   0.49629   1.000
    C78     C    0.89904   0.39663   0.57665   1.000
    C79     C    0.81990   0.14189   0.91142   1.000
    C80     C    0.77778   0.16545   0.99173   1.000
    C81     C    0.65368   0.23323   0.06874   1.000
    C82     C    0.65441   0.23149   0.90918   1.000
    C83     C    0.81900   0.14498   0.07436   1.000
    C84     C    0.02617   0.03355   0.99894   1.000
    C85     C    0.09569   0.03692   0.91961   1.000
    C86     C    0.09356   0.03949   0.07927   1.000
    C87     C    0.90004   0.10030   0.91363   1.000
    C88     C    0.94070   0.08063   0.99629   1.000
    C89     C    0.89904   0.10338   0.07665   1.000
    C90     C    0.18013   0.35811   0.91142   1.000
    C91     C    0.22225   0.33455   0.99173   1.000
    C92     C    0.34636   0.26677   0.06874   1.000
    C93     C    0.34562   0.26851   0.90918   1.000
    C94     C    0.18103   0.35503   0.07436   1.000
    C95     C    0.97386   0.46645   0.99894   1.000
    C96     C    0.90434   0.46308   0.91961   1.000
    C97     C    0.90648   0.46052   0.07927   1.000
    C98     C    0.09999   0.39970   0.91363   1.000
    C99     C    0.05934   0.41937   0.99629   1.000
    C100    C    0.10100   0.39663   0.07665   1.000
    C101    C    0.81991   0.85812   0.58857   1.000
    C102    C    0.77779   0.83457   0.50826   1.000
    C103    C    0.65369   0.76678   0.43125   1.000
    C104    C    0.65442   0.76852   0.59080   1.000
    C105    C    0.81901   0.85504   0.42563   1.000
    C106    C    0.02618   0.96646   0.50105   1.000
    C107    C    0.09570   0.96309   0.58030   1.000
    C108    C    0.09357   0.96052   0.42070   1.000
    C109    C    0.90005   0.89971   0.58636   1.000
    C110    C    0.94070   0.91938   0.50370   1.000
    C111    C    0.89904   0.89664   0.42334   1.000
    C112    C    0.18014   0.64190   0.58857   1.000
    C113    C    0.22225   0.66545   0.50826   1.000
    C114    C    0.34636   0.73324   0.43125   1.000
    C115    C    0.34562   0.73149   0.59081   1.000
    C116    C    0.18104   0.64498   0.42563   1.000
    C117    C    0.97387   0.53356   0.50105   1.000
    C118    C    0.90435   0.53693   0.58038   1.000
    C119    C    0.10100   0.60338   0.42334   1.000
    N120    N    0.37872   0.74726   0.86317   1.000
    N121    N    0.37796   0.75005   0.15959   1.000
    N122    N    0.85066   0.95928   0.14419   1.000
    N123    N    0.85458   0.95472   0.85622   1.000
    N124    N    0.62133   0.75276   0.86317   1.000
    N125    N    0.62209   0.74997   0.15959   1.000
    N126    N    0.14939   0.54075   0.14419   1.000
    N127    N    0.14547   0.54530   0.85622   1.000
    N128    N    0.37871   0.25275   0.63682   1.000
    N129    N    0.37795   0.24996   0.34041   1.000
    N130    N    0.85065   0.04074   0.35580   1.000
    N131    N    0.85457   0.04530   0.64378   1.000
    N132    N    0.62133   0.24726   0.63682   1.000
    N133    N    0.62209   0.25004   0.34041   1.000
    N134    N    0.14938   0.45926   0.35580   1.000
    N135    N    0.14546   0.45470   0.64378   1.000
    N136    N    0.62132   0.25275   0.13682   1.000
    N137    N    0.62208   0.24996   0.84040   1.000
    N138    N    0.14938   0.04074   0.85580   1.000
    N139    N    0.14546   0.04530   0.14378   1.000
    N140    N    0.37871   0.24726   0.13682   1.000
    N141    N    0.37795   0.25004   0.84040   1.000
    N142    N    0.85066   0.45927   0.85580   1.000
    N143    N    0.85457   0.45471   0.14370   1.000
    N144    N    0.62133   0.74726   0.36317   1.000
    N145    N    0.62210   0.75005   0.65958   1.000
    N146    N    0.14939   0.95927   0.64419   1.000
    N147    N    0.14547   0.95471   0.35622   1.000
    N148    N    0.37872   0.75276   0.36317   1.000
    N149    N    0.37795   0.74997   0.65958   1.000
    N150    N    0.85066   0.54075   0.64419   1.000
    N151    N    0.85458   0.54531   0.35620   1.000
loop_
    _geom_bond_atom_site_label_1
    _geom_bond_atom_site_label_2
    _geom_bond_distance
    _geom_bond_site_symmetry_2
    _ccdc_geom_bond_type
    C48    C52       1.52304  1_455   S
    C48    C49       1.46731      .   S
    C48    C50       1.46779  1_554   S
    C48    C95       1.67485  1_454   S
    C37    C41       1.52304  1_655   S
    C37    C38       1.46732      .   S
    C37    C39       1.46817  1_554   S
    C37    C84       1.67438  1_664   S
    C52    C51       1.40319      .   S
    C52    C56       1.40286  1_554   S
    C41    C40       1.40319      .   S
    C41    C42       1.40289  1_554   S
    C44    C43       1.41139      .   S
    C44    C47       1.41139  1_554   S
    C33    C32       1.41138      .   S
    C33    C36       1.41135  1_554   S
    C81    N136      1.17740      .   S
    C92    N140      1.17741      .   S
    C94    C100      1.38626      .   S
    C94    H21       1.08959      .   S
    C94    C91       1.41138  1_554   S
    C83    C89       1.38627      .   S
    C83    H17       1.08959      .   S
    C83    C80       1.41135  1_554   S
    C100   H20       1.08977      .   S
    C100   C99       1.40285  1_554   S
    C89    H16       1.08977      .   S
    C89    C88       1.40289  1_554   S
    C97    N143      1.16457      .   S
    C97    C95       1.46791  1_554   S
    C86    N139      1.16554      .   S
    C86    C84       1.46792  1_554   S
    C38    N122      1.16546      .   S
    C49    N126      1.16545      .   S
    C40    C32       1.38702      .   S
    C40    H3        1.08982      .   S
    C51    C43       1.38702      .   S
    C51    H7        1.08981      .   S
    C32    H2        1.08966      .   S
    C43    H6        1.08966      .   S
    C46    N125      1.17752      .   S
    C35    N121      1.17739      .   S
    N133   C71       1.17728      .   S
    N129   C60       1.17729      .   S
    H10    C57       1.08965      .   S
    H14    C68       1.08966      .   S
    H15    C76       1.08982      .   S
    H11    C65       1.08982      .   S
    N130   C63       1.16546      .   S
    N134   C74       1.16545      .   S
    N151   C53       1.16542      .   S
    N147   C108      1.16517      .   S
    H24    C111      1.08976      .   S
    H28    C119      1.08977      .   S
    H25    C105      1.08959      .   S
    H29    C116      1.08959      .   S
    N144   C103      1.17743      .   S
    N148   C114      1.17744      .   S
    C57    C65       1.38702      .   S
    C57    C58       1.41139      .   S
    C68    C76       1.38701      .   S
    C68    C69       1.41140      .   S
    C76    C77       1.40320      .   S
    C65    C66       1.40319      .   S
    C74    C73       1.46731      .   S
    C63    C62       1.46732      .   S
    C53    C117      1.46816      .   S
    C108   C106      1.46816      .   S
    C119   C116      1.38626      .   S
    C119   C55       1.40287      .   S
    C111   C105      1.38626      .   S
    C111   C110      1.40287      .   S
    C105   C102      1.41137      .   S
    C116   C113      1.41137      .   S
    C58    C61       1.41060      .   S
    C69    C72       1.41060      .   S
    C66    C62       1.52306  1_455   S
    C66    C67       1.40287      .   S
    C77    C73       1.52304  1_655   S
    C77    C78       1.40288      .   S
    C73    C117      1.67480  1_455   S
    C73    C75       1.46792      .   S
    C62    C106      1.67455  1_645   S
    C62    C64       1.46792      .   S
    C117   C55       1.52306  1_655   S
    C117   C118      1.46731      .   S
    C106   C110      1.52306  1_455   S
    C106   C107      1.46636      .   S
    C110   C109      1.40320      .   S
    C55    C54       1.40320      .   S
    C113   C112      1.41139      .   S
    C102   C101      1.41139      .   S
    C70    N132      1.17744      .   S
    C59    N128      1.17743      .   S
    C61    C67       1.38629      .   S
    C61    H9        1.09036      .   S
    C72    C78       1.38629      .   S
    C72    H13       1.09035      .   S
    C67    H8        1.08884      .   S
    C78    H12       1.08976      .   S
    C75    N135      1.16555      .   S
    C64    N131      1.16555      .   S
    C107   N146      1.16642      .   S
    C118   N150      1.16545      .   S
    C54    C112      1.38701      .   S
    C54    H31       1.08982      .   S
    C109   C101      1.38701      .   S
    C109   H27       1.08982      .   S
    C112   H30       1.08966      .   S
    C101   H26       1.08966      .   S
    C104   N145      1.17741      .   S
    C115   N149      1.17729      .   S
    N137   C82       1.17739      .   S
    N141   C93       1.17739      .   S
    H22    C90       1.08966      .   S
    H18    C79       1.08966      .   S
    H19    C87       1.08982      .   S
    H23    C98       1.08982      .   S
    N142   C96       1.16545      .   S
    N138   C85       1.16546      .   S
    N123   C39       1.16518      .   S
    N127   C50       1.16555      .   S
    H0     C42       1.08977      .   S
    H4     C56       1.08977      .   S
    H1     C36       1.09062      .   S
    H5     C47       1.09062      .   S
    N124   C45       1.17740      .   S
    N120   C34       1.17740      .   S
    C90    C98       1.38701      .   S
    C90    C91       1.41139      .   S
    C79    C87       1.38702      .   S
    C79    C80       1.41139      .   S
    C87    C88       1.40319      .   S
    C98    C99       1.40319      .   S
    C85    C84       1.46731      .   S
    C96    C95       1.46732      .   S
    C56    C47       1.38625      .   S
    C42    C36       1.38626      .   S
    C88    C84       1.52304  1_655   S
    C99    C95       1.52304  1_455   S
