# CIF file generated by openbabel 2.4.90, see http://openbabel.sf.net
data_I
_chemical_name_common ''
_cell_length_a 12.549
_cell_length_b 22.954
_cell_length_c 14.84
_cell_angle_alpha 90
_cell_angle_beta 90
_cell_angle_gamma 89.999
_space_group_name_H-M_alt 'P 1'
_space_group_name_Hall 'P 1'
loop_
    _symmetry_equiv_pos_as_xyz
    x,y,z
loop_
    _atom_site_label
    _atom_site_type_symbol
    _atom_site_fract_x
    _atom_site_fract_y
    _atom_site_fract_z
    _atom_site_occupancy
    H0      H    0.66428   0.95862   0.79225   1.000
    H1      H    0.65608   0.85076   0.79815   1.000
    H2      H    0.33957   0.84866   0.72079   1.000
    H3      H    0.33098   0.95650   0.71369   1.000
    H4      H    0.33577   0.54140   0.79225   1.000
    H5      H    0.34396   0.64926   0.79815   1.000
    H6      H    0.66048   0.65135   0.72079   1.000
    H7      H    0.66907   0.54352   0.71369   1.000
    H8      H    0.66427   0.04139   0.70774   1.000
    H9      H    0.65608   0.14925   0.70184   1.000
    H10     H    0.33957   0.15135   0.77920   1.000
    H11     H    0.33097   0.04352   0.78630   1.000
    H12     H    0.33577   0.45861   0.70774   1.000
    H13     H    0.34396   0.35075   0.70184   1.000
    H14     H    0.66047   0.34865   0.77920   1.000
    H15     H    0.66907   0.45648   0.78629   1.000
    H16     H    0.33576   0.04140   0.20774   1.000
    H17     H    0.34395   0.14926   0.20185   1.000
    H18     H    0.66047   0.15135   0.27920   1.000
    H19     H    0.66906   0.04351   0.28600   1.000
    H20     H    0.66427   0.45861   0.20774   1.000
    H21     H    0.65608   0.35075   0.20185   1.000
    H22     H    0.33957   0.34866   0.27920   1.000
    H23     H    0.33097   0.45649   0.28629   1.000
    H24     H    0.33578   0.95862   0.29226   1.000
    H25     H    0.34396   0.85076   0.29815   1.000
    H26     H    0.66047   0.84866   0.22079   1.000
    H27     H    0.66908   0.95649   0.21370   1.000
    H28     H    0.66427   0.54140   0.29226   1.000
    H29     H    0.65609   0.64926   0.29815   1.000
    H30     H    0.33957   0.65136   0.22079   1.000
    H31     H    0.33097   0.54353   0.21370   1.000
    C32     C    0.30500   0.79002   0.01029   1.000
    C33     C    0.58638   0.87619   0.77881   1.000
    C34     C    0.58996   0.93664   0.77539   1.000
    C35     C    0.49765   0.96782   0.75220   1.000
    C36     C    0.40531   0.93550   0.73320   1.000
    C37     C    0.40911   0.87506   0.73722   1.000
    C38     C    0.69504   0.71000   0.01029   1.000
    C39     C    0.41366   0.62383   0.77880   1.000
    C40     C    0.41008   0.56338   0.77539   1.000
    C41     C    0.50240   0.53220   0.75219   1.000
    C42     C    0.59473   0.56452   0.73323   1.000
    C43     C    0.40912   0.62496   0.23721   1.000
    C44     C    0.59093   0.62496   0.73721   1.000
    C45     C    0.30499   0.20999   0.48970   1.000
    C46     C    0.58638   0.12382   0.72119   1.000
    C47     C    0.58996   0.06337   0.72460   1.000
    C48     C    0.49764   0.03219   0.74779   1.000
    C49     C    0.40530   0.06452   0.76676   1.000
    C50     C    0.40911   0.12496   0.76277   1.000
    C51     C    0.69504   0.29001   0.48970   1.000
    C52     C    0.41365   0.37618   0.72119   1.000
    C53     C    0.41008   0.43664   0.72400   1.000
    C54     C    0.50239   0.46781   0.74780   1.000
    C55     C    0.59473   0.43549   0.76675   1.000
    C56     C    0.59093   0.37505   0.76270   1.000
    C57     C    0.69504   0.20999   0.98970   1.000
    C58     C    0.41365   0.12383   0.22120   1.000
    C59     C    0.41008   0.06337   0.22460   1.000
    C60     C    0.50239   0.03219   0.24781   1.000
    C61     C    0.59473   0.06452   0.26676   1.000
    C62     C    0.59092   0.12495   0.26279   1.000
    C63     C    0.30500   0.29001   0.98970   1.000
    C64     C    0.58638   0.37618   0.22120   1.000
    C65     C    0.58996   0.43664   0.22460   1.000
    C66     C    0.49765   0.46781   0.24780   1.000
    C67     C    0.40531   0.43549   0.26670   1.000
    C68     C    0.40911   0.37505   0.26279   1.000
    C69     C    0.69505   0.79002   0.51029   1.000
    C70     C    0.41366   0.87619   0.27880   1.000
    C71     C    0.41009   0.93665   0.27540   1.000
    C72     C    0.50240   0.96782   0.25219   1.000
    C73     C    0.59474   0.93550   0.23324   1.000
    C74     C    0.59093   0.87506   0.23721   1.000
    C75     C    0.30500   0.71000   0.51029   1.000
    C76     C    0.58639   0.62383   0.27800   1.000
    C77     C    0.58996   0.56337   0.27540   1.000
    C78     C    0.49765   0.53220   0.25218   1.000
    C79     C    0.40531   0.56453   0.23324   1.000
    N80     N    0.49784   0.84534   0.75968   1.000
    N81     N    0.50222   0.65468   0.75970   1.000
    N82     N    0.49783   0.15467   0.74029   1.000
    N83     N    0.50221   0.34534   0.74029   1.000
    N84     N    0.50221   0.15467   0.24028   1.000
    N85     N    0.49782   0.34534   0.24020   1.000
    N86     N    0.50222   0.84535   0.25971   1.000
    N87     N    0.49783   0.65468   0.25970   1.000
loop_
    _geom_bond_atom_site_label_1
    _geom_bond_atom_site_label_2
    _geom_bond_distance
    _geom_bond_site_symmetry_2
    _ccdc_geom_bond_type
    H21    C64       1.09001      .   S
    H17    C58       1.09003      .   S
    H20    C65       1.08936      .   S
    H16    C59       1.08936      .   S
    H27    C73       1.08934      .   S
    H31    C79       1.08933      .   S
    H30    C43       1.08999      .   S
    H26    C74       1.08998      .   S
    C64    C65       1.38935      .   S
    C64    N85       1.34758      .   S
    C58    C59       1.38933      .   S
    C58    N84       1.34781      .   S
    C65    C66       1.40445      .   S
    C59    C60       1.40452      .   S
    C73    C74       1.38939      .   S
    C73    C72       1.40441      .   S
    C79    C43       1.38941      .   S
    C79    C78       1.40439      .   S
    C74    N86       1.34759      .   S
    C43    N87       1.34751      .   S
    N85    C68       1.34786      .   S
    N84    C62       1.34760      .   S
    C66    C78       1.47937      .   S
    C66    C67       1.40427      .   S
    C60    C72       1.47902  1_545   S
    C60    C61       1.40441      .   S
    C78    C77       1.40454      .   S
    C72    C71       1.40451      .   S
    N87    C76       1.34540      .   S
    N86    C70       1.34779      .   S
    C62    C61       1.38939      .   S
    C62    H18       1.08995      .   S
    C68    C67       1.38937      .   S
    C68    H22       1.08995      .   S
    C67    H23       1.08954      .   S
    C61    H19       1.08816      .   S
    C71    C70       1.38935      .   S
    C71    H24       1.08937      .   S
    C77    C76       1.38897      .   S
    C77    H28       1.08937      .   S
    C76    H29       1.09320      .   S
    C70    H25       1.09003      .   S
    H13    C52       1.09005      .   S
    H9     C46       1.09004      .   S
    H12    C53       1.08736      .   S
    H8     C47       1.08937      .   S
    H7     C42       1.08933      .   S
    H3     C36       1.08920      .   S
    H2     C37       1.08999      .   S
    H6     C44       1.08997      .   S
    C52    C53       1.38903      .   S
    C52    N83       1.34779      .   S
    C46    C47       1.38935      .   S
    C46    N82       1.34779      .   S
    C53    C54       1.40671      .   S
    C47    C48       1.40450      .   S
    C36    C37       1.38942      .   S
    C36    C35       1.40450      .   S
    C42    C44       1.38939      .   S
    C42    C41       1.40440      .   S
    C44    N81       1.34759      .   S
    C37    N80       1.34757      .   S
    N83    C56       1.34730      .   S
    N82    C50       1.34758      .   S
    C48    C35       1.47902  1_545   S
    C48    C49       1.40440      .   S
    C54    C41       1.47937      .   S
    C54    C55       1.40438      .   S
    C41    C40       1.40451      .   S
    C35    C34       1.40452      .   S
    N80    C33       1.34782      .   S
    N81    C39       1.34780      .   S
    C56    C55       1.38944      .   S
    C56    H14       1.09024      .   S
    C50    C49       1.38940      .   S
    C50    H10       1.09000      .   S
    C55    H15       1.08934      .   S
    C49    H11       1.08933      .   S
    C34    C33       1.38934      .   S
    C34    H0        1.08938      .   S
    C40    C39       1.38933      .   S
    C40    H4        1.08937      .   S
    C39    H5        1.09004      .   S
    C33    H1        1.09003      .   S
