# CIF file generated by openbabel 2.4.90, see http://openbabel.sf.net
data_I
_chemical_name_common ''
_cell_length_a 12.549
_cell_length_b 22.954
_cell_length_c 14.84
_cell_angle_alpha 90
_cell_angle_beta 90
_cell_angle_gamma 89.999
_space_group_name_H-M_alt 'P 1'
_space_group_name_Hall 'P 1'
loop_
    _symmetry_equiv_pos_as_xyz
    x,y,z
loop_
    _atom_site_label
    _atom_site_type_symbol
    _atom_site_fract_x
    _atom_site_fract_y
    _atom_site_fract_z
    _atom_site_occupancy
    N0      N    0.30500   0.29001   0.98970   1.000
    N1      N    0.69504   0.71000   0.01029   1.000
    O2      O    0.14217   0.40058   0.99510   1.000
    N3      N    0.69504   0.20999   0.98970   1.000
    N4      N    0.30500   0.79002   0.01029   1.000
    O5      O    0.14217   0.90058   0.00489   1.000
    N6      N    0.50233   0.00001   0.24998   1.000
    N7      N    0.50233   0.50001   0.74996   1.000
    N8      N    0.69505   0.79002   0.51029   1.000
    N9      N    0.30499   0.20999   0.48970   1.000
    O10     O    0.14216   0.09943   0.49510   1.000
    N11     N    0.69504   0.29001   0.48970   1.000
    N12     N    0.30500   0.71000   0.51029   1.000
    O13     O    0.14217   0.59943   0.50489   1.000
    N14     N    0.49771   0.00001   0.74999   1.000
    N15     N    0.49771   0.50001   0.24995   1.000
    Zr16    Zr   0.50002   0.75001   0.76154   1.000
    O17     O    0.54984   0.75233   0.71471   1.000
    O18     O    0.54956   0.74860   0.80816   1.000
    O19     O    0.50087   0.67559   0.75841   1.000
    O20     O    0.45049   0.75142   0.80816   1.000
    O21     O    0.49917   0.82442   0.75842   1.000
    O22     O    0.45021   0.74769   0.71471   1.000
    Zr23    Zr   0.50002   0.25000   0.73845   1.000
    O24     O    0.54955   0.25141   0.69183   1.000
    O25     O    0.45048   0.24859   0.69183   1.000
    O26     O    0.54983   0.24768   0.78528   1.000
    O27     O    0.45020   0.25232   0.78528   1.000
    O28     O    0.50087   0.32442   0.74156   1.000
    O29     O    0.49917   0.17559   0.74157   1.000
    Zr30    Zr   0.50002   0.25000   0.23845   1.000
    O31     O    0.54983   0.25233   0.28528   1.000
    O32     O    0.45048   0.25141   0.19183   1.000
    O33     O    0.45020   0.24768   0.28528   1.000
    O34     O    0.49917   0.32442   0.24154   1.000
    O35     O    0.54955   0.24859   0.19183   1.000
    O36     O    0.50087   0.17559   0.24156   1.000
    Zr37    Zr   0.50002   0.75001   0.26155   1.000
    O38     O    0.45049   0.74860   0.30817   1.000
    O39     O    0.54984   0.74769   0.21472   1.000
    O40     O    0.45021   0.75233   0.21472   1.000
    O41     O    0.54956   0.75142   0.30817   1.000
    O42     O    0.50087   0.82443   0.25843   1.000
    O43     O    0.49917   0.67559   0.25842   1.000
loop_
    _geom_bond_atom_site_label_1
    _geom_bond_atom_site_label_2
    _geom_bond_distance
    _geom_bond_site_symmetry_2
    _ccdc_geom_bond_type
    N1     O2        9.05418  1_654   S
    N0     O2        3.25926      .   S
    N3     O5        9.05400  1_646   S
    N4     O5        3.25919      .   S
    N8     O10       9.05399  1_665   S
    N9     O10       3.25919      .   S
    N11    O13       9.05425  1_655   S
    N12    O13       3.25927      .   S
    Zr16   O17       0.93632      .   S
    N8     O17       3.64298      .   S
    Zr16   O18       0.93065      .   S
    N1     O18       3.62155  1_554   S
    Zr16   O19       1.70884      .   S
    N7     O19       4.03239      .   S
    Zr16   O20       0.93065      .   S
    N4     O20       3.62157  1_554   S
    Zr16   O21       1.70880      .   S
    N14    O21       4.03226  1_545   S
    Zr16   O22       0.93630      .   S
    N12    O22       3.64300      .   S
    Zr23   O24       0.93066      .   S
    N11    O24       3.62161      .   S
    Zr23   O25       0.93066      .   S
    N9     O25       3.62161      .   S
    Zr23   O26       0.93626      .   S
    N3     O26       3.64298      .   S
    Zr23   O27       0.93627      .   S
    N0     O27       3.64297      .   S
    Zr23   O28       1.70884      .   S
    N7     O28       4.03237      .   S
    Zr23   O29       1.70880      .   S
    N14    O29       4.03227      .   S
    Zr30   O31       0.93630      .   S
    N11    O31       3.64299      .   S
    Zr30   O32       0.93065      .   S
    N0     O32       3.62155  1_556   S
    Zr30   O33       0.93631      .   S
    N9     O33       3.64300      .   S
    Zr30   O34       1.70883      .   S
    N15    O34       4.03237      .   S
    Zr30   O35       0.93065      .   S
    N3     O35       3.62157  1_556   S
    Zr30   O36       1.70880      .   S
    N6     O36       4.03225      .   S
    Zr37   O38       0.93062      .   S
    N12    O38       3.62154      .   S
    Zr37   O39       0.93632      .   S
    N1     O39       3.64304      .   S
    Zr37   O40       0.93631      .   S
    N4     O40       3.64306      .   S
    Zr37   O41       0.93061      .   S
    N8     O41       3.62153      .   S
    Zr37   O42       1.70881      .   S
    N6     O42       4.03227  1_545   S
    Zr37   O43       1.70885      .   S
    N15    O43       4.03240      .   S
