# CIF file generated by openbabel 2.4.90, see http://openbabel.sf.net
data_I
_chemical_name_common ''
_cell_length_a 12.549
_cell_length_b 22.954
_cell_length_c 14.84
_cell_angle_alpha 90
_cell_angle_beta 90
_cell_angle_gamma 89.999
_space_group_name_H-M_alt 'P 1'
_space_group_name_Hall 'P 1'
loop_
    _symmetry_equiv_pos_as_xyz
    x,y,z
loop_
    _atom_site_label
    _atom_site_type_symbol
    _atom_site_fract_x
    _atom_site_fract_y
    _atom_site_fract_z
    _atom_site_occupancy
    C0      C    0.50002   0.75001   0.76154   1.000
    C1      C    0.50002   0.25000   0.73845   1.000
    C2      C    0.50002   0.25000   0.23845   1.000
    C3      C    0.50002   0.75001   0.26155   1.000
    C4      C    0.07080   0.91128   0.85832   1.000
    C5      C    0.21180   0.83761   0.86240   1.000
    C6      C    0.21025   0.84323   0.15348   1.000
    C7      C    0.06913   0.91678   0.14972   1.000
    C8      C    0.66428   0.95862   0.79225   1.000
    C9      C    0.65608   0.85076   0.79815   1.000
    C10     C    0.33957   0.84866   0.72079   1.000
    C11     C    0.33098   0.95650   0.71369   1.000
    C12     C    0.92924   0.58874   0.85832   1.000
    C13     C    0.78825   0.66241   0.86240   1.000
    C14     C    0.78980   0.65679   0.15348   1.000
    C15     C    0.93092   0.58324   0.14972   1.000
    C16     C    0.33577   0.54140   0.79225   1.000
    C17     C    0.34396   0.64926   0.79815   1.000
    C18     C    0.66048   0.65135   0.72079   1.000
    C19     C    0.66907   0.54352   0.71369   1.000
    C20     C    0.07080   0.08873   0.64160   1.000
    C21     C    0.21179   0.16240   0.63751   1.000
    C22     C    0.21024   0.15678   0.34651   1.000
    C23     C    0.06912   0.08323   0.35027   1.000
    C24     C    0.66427   0.04139   0.70774   1.000
    C25     C    0.65608   0.14925   0.70184   1.000
    C26     C    0.33957   0.15135   0.77920   1.000
    C27     C    0.33097   0.04352   0.78630   1.000
    C28     C    0.92924   0.41127   0.64167   1.000
    C29     C    0.78825   0.33760   0.63751   1.000
    C30     C    0.78980   0.34323   0.34651   1.000
    C31     C    0.93091   0.41677   0.35027   1.000
    C32     C    0.33577   0.45861   0.70774   1.000
    C33     C    0.34396   0.35075   0.70184   1.000
    C34     C    0.66047   0.34865   0.77920   1.000
    C35     C    0.66907   0.45648   0.78629   1.000
    C36     C    0.92924   0.08874   0.14167   1.000
    C37     C    0.78824   0.16240   0.13751   1.000
    C38     C    0.78980   0.15678   0.84651   1.000
    C39     C    0.93091   0.08323   0.85027   1.000
    C40     C    0.33576   0.04140   0.20774   1.000
    C41     C    0.34395   0.14926   0.20185   1.000
    C42     C    0.66047   0.15135   0.27920   1.000
    C43     C    0.66906   0.04351   0.28600   1.000
    C44     C    0.07080   0.41127   0.14167   1.000
    C45     C    0.21179   0.33760   0.13751   1.000
    C46     C    0.21024   0.34322   0.84651   1.000
    C47     C    0.06912   0.41677   0.85027   1.000
    C48     C    0.66427   0.45861   0.20774   1.000
    C49     C    0.65608   0.35075   0.20185   1.000
    C50     C    0.33957   0.34866   0.27920   1.000
    C51     C    0.33097   0.45649   0.28629   1.000
    C52     C    0.92924   0.91128   0.35832   1.000
    C53     C    0.78825   0.83761   0.36248   1.000
    C54     C    0.78980   0.84323   0.65348   1.000
    C55     C    0.93092   0.91678   0.64972   1.000
    C56     C    0.33578   0.95862   0.29226   1.000
    C57     C    0.34396   0.85076   0.29815   1.000
    C58     C    0.66047   0.84866   0.22079   1.000
    C59     C    0.66908   0.95649   0.21370   1.000
    C60     C    0.07080   0.58874   0.35832   1.000
    C61     C    0.21179   0.66241   0.36248   1.000
    C62     C    0.21024   0.65678   0.65348   1.000
    C63     C    0.06913   0.58324   0.64972   1.000
    C64     C    0.66427   0.54140   0.29226   1.000
    C65     C    0.65609   0.64926   0.29815   1.000
    C66     C    0.33957   0.65136   0.22079   1.000
    C67     C    0.33097   0.54353   0.21370   1.000
    C68     C    0.18014   0.85812   0.08857   1.000
    C69     C    0.22226   0.83457   0.00826   1.000
    C70     C    0.34636   0.76678   0.93125   1.000
    C71     C    0.34563   0.76852   0.09081   1.000
    C72     C    0.30500   0.79002   0.01029   1.000
    C73     C    0.58638   0.87619   0.77881   1.000
    C74     C    0.58996   0.93664   0.77539   1.000
    C75     C    0.49765   0.96782   0.75220   1.000
    C76     C    0.18104   0.85503   0.92563   1.000
    C77     C    0.40531   0.93550   0.73320   1.000
    C78     C    0.97387   0.96646   0.00105   1.000
    C79     C    0.90435   0.96309   0.08038   1.000
    C80     C    0.90648   0.96052   0.92070   1.000
    C81     C    0.10000   0.89971   0.08636   1.000
    C82     C    0.05935   0.91938   0.00370   1.000
    C83     C    0.40911   0.87506   0.73722   1.000
    C84     C    0.10101   0.89664   0.92334   1.000
    C85     C    0.81991   0.64190   0.08857   1.000
    C86     C    0.77779   0.66546   0.00826   1.000
    C87     C    0.65368   0.73324   0.93125   1.000
    C88     C    0.65442   0.73150   0.09080   1.000
    C89     C    0.69504   0.71000   0.01029   1.000
    C90     C    0.41366   0.62383   0.77880   1.000
    C91     C    0.41008   0.56338   0.77539   1.000
    C92     C    0.50240   0.53220   0.75219   1.000
    C93     C    0.81901   0.64498   0.92563   1.000
    C94     C    0.59473   0.56452   0.73323   1.000
    C95     C    0.02618   0.53356   0.00105   1.000
    C96     C    0.09570   0.53693   0.08038   1.000
    C97     C    0.09356   0.53950   0.92073   1.000
    C98     C    0.90005   0.60031   0.08636   1.000
    C99     C    0.94070   0.58064   0.00370   1.000
    C100    C    0.59093   0.62496   0.73721   1.000
    C101    C    0.89904   0.60338   0.92334   1.000
    C102    C    0.18013   0.14189   0.41142   1.000
    C103    C    0.22225   0.16545   0.49173   1.000
    C104    C    0.34635   0.23323   0.56874   1.000
    C105    C    0.34562   0.23149   0.40918   1.000
    C106    C    0.30499   0.20999   0.48970   1.000
    C107    C    0.58638   0.12382   0.72119   1.000
    C108    C    0.58996   0.06337   0.72460   1.000
    C109    C    0.49764   0.03219   0.74779   1.000
    C110    C    0.18103   0.14497   0.57430   1.000
    C111    C    0.40530   0.06452   0.76676   1.000
    C112    C    0.97386   0.03356   0.49894   1.000
    C113    C    0.90434   0.03692   0.41961   1.000
    C114    C    0.90647   0.03949   0.57927   1.000
    C115    C    0.09999   0.10030   0.41363   1.000
    C116    C    0.05934   0.08063   0.49629   1.000
    C117    C    0.40911   0.12496   0.76277   1.000
    C118    C    0.10100   0.10337   0.57665   1.000
    C119    C    0.81990   0.35811   0.41142   1.000
    C120    C    0.77779   0.33456   0.49173   1.000
    C121    C    0.65368   0.26678   0.56874   1.000
    C122    C    0.65442   0.26852   0.40918   1.000
    C123    C    0.69504   0.29001   0.48970   1.000
    C124    C    0.41365   0.37618   0.72119   1.000
    C125    C    0.41008   0.43664   0.72400   1.000
    C126    C    0.50239   0.46781   0.74780   1.000
    C127    C    0.81900   0.35503   0.57430   1.000
    C128    C    0.59473   0.43549   0.76675   1.000
    C129    C    0.02617   0.46645   0.49894   1.000
    C130    C    0.09569   0.46308   0.41961   1.000
    C131    C    0.09356   0.46051   0.57927   1.000
    C132    C    0.90004   0.39970   0.41363   1.000
    C133    C    0.94070   0.41938   0.49629   1.000
    C134    C    0.59093   0.37505   0.76270   1.000
    C135    C    0.89904   0.39663   0.57665   1.000
    C136    C    0.81990   0.14189   0.91142   1.000
    C137    C    0.77778   0.16545   0.99173   1.000
    C138    C    0.65368   0.23323   0.06874   1.000
    C139    C    0.65441   0.23149   0.90918   1.000
    C140    C    0.69504   0.20999   0.98970   1.000
    C141    C    0.41365   0.12383   0.22120   1.000
    C142    C    0.41008   0.06337   0.22460   1.000
    C143    C    0.50239   0.03219   0.24781   1.000
    C144    C    0.81900   0.14498   0.07436   1.000
    C145    C    0.59473   0.06452   0.26676   1.000
    C146    C    0.02617   0.03355   0.99894   1.000
    C147    C    0.09569   0.03692   0.91961   1.000
    C148    C    0.09356   0.03949   0.07927   1.000
    C149    C    0.90004   0.10030   0.91363   1.000
    C150    C    0.94070   0.08063   0.99629   1.000
    C151    C    0.59092   0.12495   0.26279   1.000
    C152    C    0.89904   0.10338   0.07665   1.000
    C153    C    0.18013   0.35811   0.91142   1.000
    C154    C    0.22225   0.33455   0.99173   1.000
    C155    C    0.34636   0.26677   0.06874   1.000
    C156    C    0.34562   0.26851   0.90918   1.000
    C157    C    0.30500   0.29001   0.98970   1.000
    C158    C    0.58638   0.37618   0.22120   1.000
    C159    C    0.58996   0.43664   0.22460   1.000
    C160    C    0.49765   0.46781   0.24780   1.000
    C161    C    0.18103   0.35503   0.07436   1.000
    C162    C    0.40531   0.43549   0.26670   1.000
    C163    C    0.97386   0.46645   0.99894   1.000
    C164    C    0.90434   0.46308   0.91961   1.000
    C165    C    0.90648   0.46052   0.07927   1.000
    C166    C    0.09999   0.39970   0.91363   1.000
    C167    C    0.05934   0.41937   0.99629   1.000
    C168    C    0.40911   0.37505   0.26279   1.000
    C169    C    0.10100   0.39663   0.07665   1.000
    C170    C    0.81991   0.85812   0.58857   1.000
    C171    C    0.77779   0.83457   0.50826   1.000
    C172    C    0.65369   0.76678   0.43125   1.000
    C173    C    0.65442   0.76852   0.59080   1.000
    C174    C    0.69505   0.79002   0.51029   1.000
    C175    C    0.41366   0.87619   0.27880   1.000
    C176    C    0.41009   0.93665   0.27540   1.000
    C177    C    0.50240   0.96782   0.25219   1.000
    C178    C    0.81901   0.85504   0.42563   1.000
    C179    C    0.59474   0.93550   0.23324   1.000
    C180    C    0.02618   0.96646   0.50105   1.000
    C181    C    0.09570   0.96309   0.58030   1.000
    C182    C    0.09357   0.96052   0.42070   1.000
    C183    C    0.90005   0.89971   0.58636   1.000
    C184    C    0.94070   0.91938   0.50370   1.000
    C185    C    0.59093   0.87506   0.23721   1.000
    C186    C    0.89904   0.89664   0.42334   1.000
    C187    C    0.18014   0.64190   0.58857   1.000
    C188    C    0.22225   0.66545   0.50826   1.000
    C189    C    0.34636   0.73324   0.43125   1.000
    C190    C    0.34562   0.73149   0.59081   1.000
    C191    C    0.30500   0.71000   0.51029   1.000
    C192    C    0.58639   0.62383   0.27800   1.000
    C193    C    0.58996   0.56337   0.27540   1.000
    C194    C    0.49765   0.53220   0.25218   1.000
    C195    C    0.18104   0.64498   0.42563   1.000
    C196    C    0.40531   0.56453   0.23324   1.000
    C197    C    0.97387   0.53356   0.50105   1.000
    C198    C    0.90435   0.53693   0.58038   1.000
    C199    C    0.90648   0.53950   0.42070   1.000
    C200    C    0.10000   0.60031   0.58636   1.000
    C201    C    0.05934   0.58064   0.50370   1.000
    C202    C    0.40912   0.62496   0.23721   1.000
    C203    C    0.10100   0.60338   0.42334   1.000
    C204    C    0.37872   0.74726   0.86317   1.000
    C205    C    0.37796   0.75005   0.15959   1.000
    C206    C    0.85066   0.95928   0.14419   1.000
    C207    C    0.49784   0.84534   0.75968   1.000
    C208    C    0.85458   0.95472   0.85622   1.000
    C209    C    0.62133   0.75276   0.86317   1.000
    C210    C    0.62209   0.74997   0.15959   1.000
    C211    C    0.14939   0.54075   0.14419   1.000
    C212    C    0.50222   0.65468   0.75970   1.000
    C213    C    0.14547   0.54530   0.85622   1.000
    C214    C    0.37871   0.25275   0.63682   1.000
    C215    C    0.37795   0.24996   0.34041   1.000
    C216    C    0.85065   0.04074   0.35580   1.000
    C217    C    0.49783   0.15467   0.74029   1.000
    C218    C    0.85457   0.04530   0.64378   1.000
    C219    C    0.62133   0.24726   0.63682   1.000
    C220    C    0.62209   0.25004   0.34041   1.000
    C221    C    0.14938   0.45926   0.35580   1.000
    C222    C    0.50221   0.34534   0.74029   1.000
    C223    C    0.14546   0.45470   0.64378   1.000
    C224    C    0.62132   0.25275   0.13682   1.000
    C225    C    0.62208   0.24996   0.84040   1.000
    C226    C    0.14938   0.04074   0.85580   1.000
    C227    C    0.50221   0.15467   0.24028   1.000
    C228    C    0.14546   0.04530   0.14378   1.000
    C229    C    0.37871   0.24726   0.13682   1.000
    C230    C    0.37795   0.25004   0.84040   1.000
    C231    C    0.85066   0.45927   0.85580   1.000
    C232    C    0.49782   0.34534   0.24020   1.000
    C233    C    0.85457   0.45471   0.14370   1.000
    C234    C    0.62133   0.74726   0.36317   1.000
    C235    C    0.62210   0.75005   0.65958   1.000
    C236    C    0.14939   0.95927   0.64419   1.000
    C237    C    0.50222   0.84535   0.25971   1.000
    C238    C    0.14547   0.95471   0.35622   1.000
    C239    C    0.37872   0.75276   0.36317   1.000
    C240    C    0.37795   0.74997   0.65958   1.000
    C241    C    0.85066   0.54075   0.64419   1.000
    C242    C    0.49783   0.65468   0.25970   1.000
    C243    C    0.85458   0.54531   0.35620   1.000
    O244    O    0.98344   0.55710   0.00237   1.000
    O245    O    0.06094   0.53525   0.04071   1.000
    O246    O    0.05987   0.53653   0.96089   1.000
    O247    O    0.00002   0.50001   0.99999   1.000
    O248    O    0.01661   0.94292   0.00237   1.000
    O249    O    0.93911   0.96478   0.04071   1.000
    O250    O    0.94018   0.96349   0.96087   1.000
    O251    O    0.00002   0.00001   0.99999   1.000
    O252    O    0.92038   0.59048   0.04503   1.000
    O253    O    0.91987   0.59201   0.96352   1.000
    O254    O    0.07967   0.90955   0.04503   1.000
    O255    O    0.08018   0.90801   0.96352   1.000
    O256    O    0.73642   0.68773   0.00928   1.000
    O257    O    0.79885   0.65368   0.04841   1.000
    O258    O    0.79840   0.65522   0.96694   1.000
    O259    O    0.26363   0.81229   0.00928   1.000
    O260    O    0.20120   0.84634   0.04841   1.000
    O261    O    0.20165   0.84480   0.96694   1.000
    O262    O    0.32532   0.77927   0.05055   1.000
    O263    O    0.32568   0.77840   0.97077   1.000
    O264    O    0.67473   0.72075   0.05054   1.000
    O265    O    0.67436   0.72162   0.97077   1.000
    O266    O    0.63750   0.24299   0.10278   1.000
    O267    O    0.67436   0.22161   0.02922   1.000
    O268    O    0.36253   0.25701   0.10278   1.000
    O269    O    0.32568   0.27839   0.02922   1.000
    O270    O    0.14102   0.37583   0.07550   1.000
    O271    O    0.19641   0.34632   0.10593   1.000
    O272    O    0.20164   0.34479   0.03304   1.000
    O273    O    0.85902   0.12418   0.07550   1.000
    O274    O    0.80362   0.15369   0.10593   1.000
    O275    O    0.79839   0.15521   0.03304   1.000
    O276    O    0.08590   0.40395   0.10916   1.000
    O277    O    0.08017   0.40800   0.03647   1.000
    O278    O    0.91414   0.09606   0.10916   1.000
    O279    O    0.91987   0.09200   0.03647   1.000
    O280    O    0.88053   0.45761   0.11148   1.000
    O281    O    0.94017   0.46348   0.03910   1.000
    O282    O    0.11951   0.04240   0.11152   1.000
    O283    O    0.05986   0.03652   0.03910   1.000
    O284    O    0.87751   0.96118   0.11228   1.000
    O285    O    0.12254   0.53884   0.11228   1.000
    O286    O    0.14007   0.87891   0.08746   1.000
    O287    O    0.08456   0.90824   0.11804   1.000
    O288    O    0.85998   0.62111   0.08746   1.000
    O289    O    0.91548   0.59178   0.11804   1.000
    O290    O    0.19519   0.85068   0.12102   1.000
    O291    O    0.80485   0.64935   0.12102   1.000
    O292    O    0.63826   0.74074   0.12520   1.000
    O293    O    0.36179   0.75929   0.12520   1.000
    O294    O    0.56067   0.25138   0.18763   1.000
    O295    O    0.43936   0.24863   0.18763   1.000
    O296    O    0.43899   0.75003   0.21057   1.000
    O297    O    0.56106   0.74999   0.21057   1.000
    O298    O    0.62123   0.36347   0.21152   1.000
    O299    O    0.37880   0.13654   0.21152   1.000
    O300    O    0.62711   0.44762   0.21617   1.000
    O301    O    0.37292   0.05238   0.21617   1.000
    O302    O    0.63191   0.94600   0.22347   1.000
    O303    O    0.36814   0.55403   0.22347   1.000
    O304    O    0.37434   0.63816   0.22900   1.000
    O305    O    0.62570   0.86186   0.22900   1.000
    O306    O    0.58817   0.40641   0.22290   1.000
    O307    O    0.54210   0.36076   0.23070   1.000
    O308    O    0.41186   0.09360   0.22290   1.000
    O309    O    0.45793   0.13925   0.23074   1.000
    O310    O    0.54380   0.45222   0.23620   1.000
    O311    O    0.45623   0.04778   0.23620   1.000
    O312    O    0.59283   0.90528   0.23522   1.000
    O313    O    0.54857   0.95166   0.24271   1.000
    O314    O    0.40721   0.59474   0.23522   1.000
    O315    O    0.45148   0.54836   0.24271   1.000
    O316    O    0.54657   0.86020   0.24846   1.000
    O317    O    0.45347   0.63982   0.24846   1.000
    O318    O    0.49892   0.29767   0.23932   1.000
    O319    O    0.50112   0.20234   0.23936   1.000
    O320    O    0.56105   0.25002   0.28943   1.000
    O321    O    0.43898   0.24998   0.28943   1.000
    O322    O    0.45346   0.36019   0.25149   1.000
    O323    O    0.54657   0.13981   0.25154   1.000
    O324    O    0.49765   0.50001   0.24999   1.000
    O325    O    0.45148   0.45165   0.25725   1.000
    O326    O    0.50239   0.00001   0.25000   1.000
    O327    O    0.54856   0.04835   0.25728   1.000
    O328    O    0.54380   0.54779   0.26379   1.000
    O329    O    0.45624   0.95223   0.26380   1.000
    O330    O    0.49893   0.70234   0.26062   1.000
    O331    O    0.54211   0.63925   0.26885   1.000
    O332    O    0.50112   0.79768   0.26063   1.000
    O333    O    0.45794   0.86077   0.26925   1.000
    O334    O    0.56068   0.74864   0.31236   1.000
    O335    O    0.43937   0.75138   0.31236   1.000
    O336    O    0.59283   0.09473   0.26477   1.000
    O337    O    0.62569   0.13815   0.27099   1.000
    O338    O    0.40721   0.40527   0.26474   1.000
    O339    O    0.37434   0.36185   0.27099   1.000
    O340    O    0.36814   0.44599   0.27649   1.000
    O341    O    0.63190   0.05401   0.27638   1.000
    O342    O    0.41187   0.90642   0.27710   1.000
    O343    O    0.37293   0.94764   0.28383   1.000
    O344    O    0.58817   0.59360   0.27670   1.000
    O345    O    0.62711   0.55239   0.28383   1.000
    O346    O    0.62124   0.63654   0.28808   1.000
    O347    O    0.37881   0.86348   0.28848   1.000
    O348    O    0.63825   0.25928   0.37479   1.000
    O349    O    0.36178   0.24073   0.37479   1.000
    O350    O    0.19518   0.14933   0.37896   1.000
    O351    O    0.80485   0.35067   0.37896   1.000
    O352    O    0.91548   0.40824   0.38195   1.000
    O353    O    0.08456   0.09177   0.38195   1.000
    O354    O    0.87750   0.03883   0.38770   1.000
    O355    O    0.12254   0.46117   0.38770   1.000
    O356    O    0.88053   0.54241   0.38845   1.000
    O357    O    0.11952   0.95761   0.38846   1.000
    O358    O    0.91414   0.90396   0.39083   1.000
    O359    O    0.08590   0.59606   0.39083   1.000
    O360    O    0.80363   0.84632   0.39405   1.000
    O361    O    0.19642   0.65369   0.39405   1.000
    O362    O    0.63751   0.75702   0.39721   1.000
    O363    O    0.36254   0.74300   0.39721   1.000
    O364    O    0.67473   0.27927   0.44944   1.000
    O365    O    0.32530   0.22074   0.44944   1.000
    O366    O    0.14006   0.12110   0.41253   1.000
    O367    O    0.20119   0.15367   0.45158   1.000
    O368    O    0.85997   0.37891   0.41253   1.000
    O369    O    0.79885   0.34634   0.45158   1.000
    O370    O    0.92037   0.40954   0.45496   1.000
    O371    O    0.07966   0.09047   0.45496   1.000
    O372    O    0.06093   0.46476   0.45927   1.000
    O373    O    0.93910   0.03524   0.45927   1.000
    O374    O    0.94017   0.53653   0.46087   1.000
    O375    O    0.05987   0.96349   0.46087   1.000
    O376    O    0.14102   0.62418   0.42448   1.000
    O377    O    0.08017   0.59201   0.46352   1.000
    O378    O    0.85903   0.87584   0.42448   1.000
    O379    O    0.91987   0.90801   0.46352   1.000
    O380    O    0.79840   0.84480   0.46694   1.000
    O381    O    0.20165   0.65522   0.46694   1.000
    O382    O    0.67437   0.77840   0.47077   1.000
    O383    O    0.32568   0.72162   0.47077   1.000
    O384    O    0.26362   0.18772   0.49071   1.000
    O385    O    0.32567   0.22161   0.52922   1.000
    O386    O    0.73641   0.31229   0.49071   1.000
    O387    O    0.67436   0.27839   0.52922   1.000
    O388    O    0.20164   0.15521   0.53301   1.000
    O389    O    0.79840   0.34479   0.53301   1.000
    O390    O    0.01660   0.05709   0.49761   1.000
    O391    O    0.08017   0.09200   0.53647   1.000
    O392    O    0.98343   0.44291   0.49761   1.000
    O393    O    0.91987   0.40800   0.53647   1.000
    O394    O    0.00002   0.50001   0.49999   1.000
    O395    O    0.05987   0.46348   0.53910   1.000
    O396    O    0.00002   0.00001   0.49999   1.000
    O397    O    0.94017   0.03652   0.53910   1.000
    O398    O    0.01661   0.55710   0.50237   1.000
    O399    O    0.93911   0.53525   0.54071   1.000
    O400    O    0.98344   0.94292   0.50237   1.000
    O401    O    0.06094   0.96477   0.54067   1.000
    O402    O    0.92038   0.90955   0.54503   1.000
    O403    O    0.07967   0.59047   0.54503   1.000
    O404    O    0.26363   0.68772   0.50928   1.000
    O405    O    0.20119   0.65368   0.54841   1.000
    O406    O    0.73642   0.81229   0.50928   1.000
    O407    O    0.79885   0.84634   0.54841   1.000
    O408    O    0.67474   0.77927   0.55055   1.000
    O409    O    0.32531   0.72075   0.55055   1.000
    O410    O    0.63750   0.25702   0.60278   1.000
    O411    O    0.36253   0.24299   0.60278   1.000
    O412    O    0.14101   0.12417   0.57547   1.000
    O413    O    0.19641   0.15369   0.60590   1.000
    O414    O    0.85902   0.37583   0.57547   1.000
    O415    O    0.80363   0.34632   0.60590   1.000
    O416    O    0.08590   0.09605   0.60912   1.000
    O417    O    0.91414   0.40395   0.60916   1.000
    O418    O    0.11951   0.45761   0.61152   1.000
    O419    O    0.88052   0.04240   0.61152   1.000
    O420    O    0.12254   0.96118   0.61225   1.000
    O421    O    0.87750   0.53884   0.61229   1.000
    O422    O    0.14007   0.62111   0.58747   1.000
    O423    O    0.08456   0.59178   0.61804   1.000
    O424    O    0.85998   0.87891   0.58747   1.000
    O425    O    0.91548   0.90824   0.61804   1.000
    O426    O    0.19519   0.64934   0.62102   1.000
    O427    O    0.80486   0.85068   0.62102   1.000
    O428    O    0.63826   0.75929   0.62519   1.000
    O429    O    0.36179   0.74073   0.62519   1.000
    O430    O    0.56067   0.24863   0.68763   1.000
    O431    O    0.43936   0.25138   0.68763   1.000
    O432    O    0.43899   0.74999   0.71056   1.000
    O433    O    0.56106   0.75003   0.71056   1.000
    O434    O    0.37881   0.36347   0.71152   1.000
    O435    O    0.62123   0.13654   0.71152   1.000
    O436    O    0.37292   0.44763   0.71587   1.000
    O437    O    0.62711   0.05238   0.71617   1.000
    O438    O    0.63190   0.55402   0.72346   1.000
    O439    O    0.36815   0.94600   0.72345   1.000
    O440    O    0.37434   0.86186   0.72901   1.000
    O441    O    0.62570   0.63816   0.72900   1.000
    O442    O    0.41187   0.40641   0.72259   1.000
    O443    O    0.45793   0.36076   0.73074   1.000
    O444    O    0.58817   0.09359   0.72289   1.000
    O445    O    0.54210   0.13925   0.73074   1.000
    O446    O    0.45624   0.45222   0.73590   1.000
    O447    O    0.54380   0.04778   0.73619   1.000
    O448    O    0.40721   0.90528   0.73521   1.000
    O449    O    0.45148   0.95166   0.74270   1.000
    O450    O    0.59283   0.59474   0.73522   1.000
    O451    O    0.54857   0.54836   0.74271   1.000
    O452    O    0.54657   0.63982   0.74845   1.000
    O453    O    0.45347   0.86020   0.74845   1.000
    O454    O    0.50111   0.29767   0.73937   1.000
    O455    O    0.49892   0.20234   0.73937   1.000
    O456    O    0.56105   0.24998   0.78943   1.000
    O457    O    0.43898   0.25002   0.78943   1.000
    O458    O    0.54657   0.36019   0.75149   1.000
    O459    O    0.45347   0.13981   0.75153   1.000
    O460    O    0.49764   0.00001   0.74999   1.000
    O461    O    0.45147   0.04835   0.75727   1.000
    O462    O    0.50240   0.50001   0.74999   1.000
    O463    O    0.54856   0.45165   0.75727   1.000
    O464    O    0.45624   0.54779   0.76379   1.000
    O465    O    0.54381   0.95223   0.76379   1.000
    O466    O    0.49893   0.79768   0.76061   1.000
    O467    O    0.54211   0.86076   0.76924   1.000
    O468    O    0.50112   0.70234   0.76062   1.000
    O469    O    0.45794   0.63925   0.76925   1.000
    O470    O    0.56068   0.75138   0.81235   1.000
    O471    O    0.43937   0.74864   0.81235   1.000
    O472    O    0.59283   0.40527   0.76472   1.000
    O473    O    0.62570   0.36185   0.77095   1.000
    O474    O    0.40721   0.09474   0.76476   1.000
    O475    O    0.37434   0.13815   0.77098   1.000
    O476    O    0.63190   0.44599   0.77652   1.000
    O477    O    0.36814   0.05402   0.77653   1.000
    O478    O    0.58817   0.90641   0.77710   1.000
    O479    O    0.62712   0.94763   0.78382   1.000
    O480    O    0.41187   0.59360   0.77709   1.000
    O481    O    0.37293   0.55239   0.78382   1.000
    O482    O    0.37881   0.63655   0.78848   1.000
    O483    O    0.62123   0.86347   0.78848   1.000
    O484    O    0.63825   0.24073   0.87479   1.000
    O485    O    0.36178   0.25928   0.87479   1.000
    O486    O    0.19519   0.35067   0.87896   1.000
    O487    O    0.80485   0.14934   0.87896   1.000
    O488    O    0.91548   0.09177   0.88195   1.000
    O489    O    0.08456   0.40823   0.88195   1.000
    O490    O    0.87750   0.46117   0.88770   1.000
    O491    O    0.12253   0.03883   0.88770   1.000
    O492    O    0.88053   0.95762   0.88846   1.000
    O493    O    0.11952   0.54240   0.88848   1.000
    O494    O    0.08590   0.90396   0.89083   1.000
    O495    O    0.91414   0.59606   0.89083   1.000
    O496    O    0.19642   0.84632   0.89401   1.000
    O497    O    0.80363   0.65370   0.89401   1.000
    O498    O    0.63751   0.74300   0.89721   1.000
    O499    O    0.36254   0.75702   0.89721   1.000
    O500    O    0.32531   0.27926   0.94944   1.000
    O501    O    0.67472   0.22074   0.94944   1.000
    O502    O    0.14006   0.37890   0.91252   1.000
    O503    O    0.20119   0.34633   0.95157   1.000
    O504    O    0.85997   0.12110   0.91252   1.000
    O505    O    0.79884   0.15367   0.95157   1.000
    O506    O    0.92037   0.09047   0.95496   1.000
    O507    O    0.07967   0.40954   0.95496   1.000
    O508    O    0.06093   0.03524   0.95927   1.000
    O509    O    0.93910   0.46477   0.95927   1.000
    O510    O    0.85902   0.62418   0.92448   1.000
    O511    O    0.14102   0.87584   0.92448   1.000
    O512    O    0.73641   0.18772   0.99072   1.000
    O513    O    0.26362   0.31228   0.99072   1.000
    O514    O    0.98343   0.05709   0.99761   1.000
    O515    O    0.01660   0.44291   0.99761   1.000
loop_
    _geom_bond_atom_site_label_1
    _geom_bond_atom_site_label_2
    _geom_bond_distance
    _geom_bond_site_symmetry_2
    _ccdc_geom_bond_type
    C95    O244      0.76152  1_455   S
    C99    O244      0.76152      .   S
    C95    O245      0.73366      .   S
    C96    O245      0.73366      .   S
    C95    O246      0.73389  1_554   S
    C97    O246      0.73389      .   S
    C95    O247      0.83743  1_554   S
    C163   O247      0.83743  1_655   S
    C78    O248      0.76152  1_655   S
    C82    O248      0.76152      .   S
    C78    O249      0.73366      .   S
    C79    O249      0.73366      .   S
    C78    O250      0.73408  1_554   S
    C80    O250      0.73408      .   S
    C78    O251      0.83719  1_664   S
    C146   O251      0.83719      .   S
    C99    O252      0.70160      .   S
    C98    O252      0.70160      .   S
    C99    O253      0.70143  1_554   S
    C101   O253      0.70143      .   S
    C82    O254      0.70160      .   S
    C81    O254      0.70160      .   S
    C82    O255      0.70144  1_554   S
    C84    O255      0.70144      .   S
    C86    O256      0.72880      .   S
    C89    O256      0.72880      .   S
    C86    O257      0.70570      .   S
    C85    O257      0.70570      .   S
    C86    O258      0.70569  1_554   S
    C93    O258      0.70569      .   S
    C69    O259      0.72881      .   S
    C72    O259      0.72881      .   S
    C69    O260      0.70569      .   S
    C68    O260      0.70569      .   S
    C69    O261      0.70568  1_554   S
    C76    O261      0.70568      .   S
    C72    O262      0.69484      .   S
    C71    O262      0.69484      .   S
    C72    O263      0.69459  1_554   S
    C70    O263      0.69459      .   S
    C89    O264      0.69477      .   S
    C88    O264      0.69477      .   S
    C89    O265      0.69457  1_554   S
    C87    O265      0.69457      .   S
    C138   O266      0.58870      .   S
    C224   O266      0.58870      .   S
    C138   O267      0.69458      .   S
    C140   O267      0.69458  1_556   S
    C155   O268      0.58870      .   S
    C229   O268      0.58870      .   S
    C155   O269      0.69456      .   S
    C157   O269      0.69456  1_556   S
    C161   O270      0.69313      .   S
    C169   O270      0.69313      .   S
    C161   O271      0.54479      .   S
    C45    O271      0.54479      .   S
    C161   O272      0.70569      .   S
    C154   O272      0.70569  1_556   S
    C144   O273      0.69314      .   S
    C152   O273      0.69314      .   S
    C144   O274      0.54479      .   S
    C37    O274      0.54479      .   S
    C144   O275      0.70568      .   S
    C137   O275      0.70568  1_556   S
    C169   O276      0.54489      .   S
    C44    O276      0.54489      .   S
    C169   O277      0.70143      .   S
    C167   O277      0.70143  1_556   S
    C152   O278      0.54489      .   S
    C36    O278      0.54489      .   S
    C152   O279      0.70144      .   S
    C150   O279      0.70144  1_556   S
    C165   O280      0.58228      .   S
    C233   O280      0.58228      .   S
    C165   O281      0.73396      .   S
    C163   O281      0.73396  1_556   S
    C148   O282      0.58277      .   S
    C228   O282      0.58277      .   S
    C148   O283      0.73396      .   S
    C146   O283      0.73396  1_556   S
    C79    O284      0.58273      .   S
    C206   O284      0.58273      .   S
    C96    O285      0.58273      .   S
    C211   O285      0.58273      .   S
    C81    O286      0.69351      .   S
    C68    O286      0.69351      .   S
    C81    O287      0.54491      .   S
    C7     O287      0.54491      .   S
    C98    O288      0.69351      .   S
    C85    O288      0.69351      .   S
    C98    O289      0.54491      .   S
    C15    O289      0.54491      .   S
    C68    O290      0.54483      .   S
    C6     O290      0.54483      .   S
    C85    O291      0.54483      .   S
    C14    O291      0.54483      .   S
    C88    O292      0.58876      .   S
    C210   O292      0.58876      .   S
    C71    O293      0.58870      .   S
    C205   O293      0.58870      .   S
    C224   O294      1.07190      .   S
    C2     O294      1.07190      .   S
    C229   O295      1.07190      .   S
    C2     O295      1.07190      .   S
    C205   O296      1.07656      .   S
    C3     O296      1.07656      .   S
    C210   O297      1.07656      .   S
    C3     O297      1.07656      .   S
    C49    O298      0.54500      .   S
    C158   O298      0.54500      .   S
    C41    O299      0.54502      .   S
    C141   O299      0.54502      .   S
    C48    O300      0.54468      .   S
    C159   O300      0.54468      .   S
    C40    O301      0.54468      .   S
    C142   O301      0.54468      .   S
    C59    O302      0.54467      .   S
    C179   O302      0.54467      .   S
    C67    O303      0.54466      .   S
    C196   O303      0.54466      .   S
    C66    O304      0.54500      .   S
    C202   O304      0.54500      .   S
    C58    O305      0.54499      .   S
    C185   O305      0.54499      .   S
    C158   O306      0.69467      .   S
    C159   O306      0.69467      .   S
    C158   O307      0.67379      .   S
    C232   O307      0.67379      .   S
    C141   O308      0.69466      .   S
    C142   O308      0.69466      .   S
    C141   O309      0.67390      .   S
    C227   O309      0.67390      .   S
    C159   O310      0.70222      .   S
    C160   O310      0.70222      .   S
    C142   O311      0.70226      .   S
    C143   O311      0.70226      .   S
    C179   O312      0.69469      .   S
    C185   O312      0.69469      .   S
    C179   O313      0.70220      .   S
    C177   O313      0.70220      .   S
    C196   O314      0.69471      .   S
    C202   O314      0.69471      .   S
    C196   O315      0.70219      .   S
    C194   O315      0.70219      .   S
    C185   O316      0.67380      .   S
    C237   O316      0.67380      .   S
    C202   O317      0.67376      .   S
    C242   O317      0.67376      .   S
    C2     O318      1.09431      .   S
    C232   O318      1.09431      .   S
    C2     O319      1.09432      .   S
    C227   O319      1.09432      .   S
    C2     O320      1.07657      .   S
    C220   O320      1.07657      .   S
    C2     O321      1.07657      .   S
    C215   O321      1.07657      .   S
    C232   O322      0.67393      .   S
    C168   O322      0.67393      .   S
    C227   O323      0.67380      .   S
    C151   O323      0.67380      .   S
    C160   O324      0.73968      .   S
    C194   O324      0.73968      .   S
    C160   O325      0.70214      .   S
    C162   O325      0.70214      .   S
    C143   O326      0.73951      .   S
    C177   O326      0.73951  1_565   S
    C143   O327      0.70221      .   S
    C145   O327      0.70221      .   S
    C194   O328      0.70227      .   S
    C193   O328      0.70227      .   S
    C177   O329      0.70226      .   S
    C176   O329      0.70226      .   S
    C242   O330      1.09432      .   S
    C3     O330      1.09432      .   S
    C242   O331      0.67270      .   S
    C192   O331      0.67270      .   S
    C237   O332      1.09433      .   S
    C3     O332      1.09433      .   S
    C237   O333      0.67389      .   S
    C175   O333      0.67389      .   S
    C3     O334      1.07186      .   S
    C234   O334      1.07186      .   S
    C3     O335      1.07186      .   S
    C239   O335      1.07186      .   S
    C151   O336      0.69469      .   S
    C145   O336      0.69469      .   S
    C151   O337      0.54498      .   S
    C42    O337      0.54498      .   S
    C168   O338      0.69469      .   S
    C162   O338      0.69469      .   S
    C168   O339      0.54497      .   S
    C50    O339      0.54497      .   S
    C162   O340      0.54477      .   S
    C51    O340      0.54477      .   S
    C145   O341      0.54408      .   S
    C43    O341      0.54408      .   S
    C176   O342      0.69467      .   S
    C175   O342      0.69467      .   S
    C176   O343      0.54468      .   S
    C56    O343      0.54468      .   S
    C193   O344      0.69448      .   S
    C192   O344      0.69448      .   S
    C193   O345      0.54468      .   S
    C64    O345      0.54468      .   S
    C192   O346      0.54660      .   S
    C65    O346      0.54660      .   S
    C175   O347      0.54502      .   S
    C57    O347      0.54502      .   S
    C220   O348      0.58864      .   S
    C122   O348      0.58864      .   S
    C215   O349      0.58864      .   S
    C105   O349      0.58864      .   S
    C22    O350      0.54483      .   S
    C102   O350      0.54483      .   S
    C30    O351      0.54483      .   S
    C119   O351      0.54483      .   S
    C31    O352      0.54491      .   S
    C132   O352      0.54491      .   S
    C23    O353      0.54491      .   S
    C115   O353      0.54491      .   S
    C216   O354      0.58273      .   S
    C113   O354      0.58273      .   S
    C221   O355      0.58273      .   S
    C130   O355      0.58273      .   S
    C243   O356      0.58271      .   S
    C199   O356      0.58271      .   S
    C238   O357      0.58259      .   S
    C182   O357      0.58259      .   S
    C52    O358      0.54488      .   S
    C186   O358      0.54488      .   S
    C60    O359      0.54489      .   S
    C203   O359      0.54489      .   S
    C53    O360      0.54479      .   S
    C178   O360      0.54479      .   S
    C61    O361      0.54480      .   S
    C195   O361      0.54480      .   S
    C234   O362      0.58871      .   S
    C172   O362      0.58871      .   S
    C239   O363      0.58872      .   S
    C189   O363      0.58872      .   S
    C122   O364      0.69484      .   S
    C123   O364      0.69484      .   S
    C105   O365      0.69484      .   S
    C106   O365      0.69484      .   S
    C102   O366      0.69351      .   S
    C115   O366      0.69351      .   S
    C102   O367      0.70570      .   S
    C103   O367      0.70570      .   S
    C119   O368      0.69350      .   S
    C132   O368      0.69350      .   S
    C119   O369      0.70570      .   S
    C120   O369      0.70570      .   S
    C132   O370      0.70160      .   S
    C133   O370      0.70160      .   S
    C115   O371      0.70160      .   S
    C116   O371      0.70160      .   S
    C130   O372      0.73366      .   S
    C129   O372      0.73366      .   S
    C113   O373      0.73366      .   S
    C112   O373      0.73366      .   S
    C199   O374      0.73408      .   S
    C197   O374      0.73408      .   S
    C182   O375      0.73408      .   S
    C180   O375      0.73408      .   S
    C203   O376      0.69313      .   S
    C195   O376      0.69313      .   S
    C203   O377      0.70144      .   S
    C201   O377      0.70144      .   S
    C186   O378      0.69313      .   S
    C178   O378      0.69313      .   S
    C186   O379      0.70143      .   S
    C184   O379      0.70143      .   S
    C178   O380      0.70569      .   S
    C171   O380      0.70569      .   S
    C195   O381      0.70569      .   S
    C188   O381      0.70569      .   S
    C172   O382      0.69458      .   S
    C174   O382      0.69458      .   S
    C189   O383      0.69458      .   S
    C191   O383      0.69458      .   S
    C106   O384      0.72881      .   S
    C103   O384      0.72881      .   S
    C106   O385      0.69458      .   S
    C104   O385      0.69458      .   S
    C123   O386      0.72881      .   S
    C120   O386      0.72881      .   S
    C123   O387      0.69458      .   S
    C121   O387      0.69458      .   S
    C103   O388      0.70530      .   S
    C110   O388      0.70530      .   S
    C120   O389      0.70530      .   S
    C127   O389      0.70530      .   S
    C116   O390      0.76153      .   S
    C112   O390      0.76153  1_655   S
    C116   O391      0.70143      .   S
    C118   O391      0.70143      .   S
    C133   O392      0.76152      .   S
    C129   O392      0.76152  1_455   S
    C133   O393      0.70144      .   S
    C135   O393      0.70144      .   S
    C129   O394      0.83740      .   S
    C197   O394      0.83740  1_655   S
    C129   O395      0.73396      .   S
    C131   O395      0.73396      .   S
    C112   O396      0.83728  1_655   S
    C180   O396      0.83728  1_565   S
    C112   O397      0.73396      .   S
    C114   O397      0.73396      .   S
    C197   O398      0.76153  1_655   S
    C201   O398      0.76153      .   S
    C197   O399      0.73366      .   S
    C198   O399      0.73366      .   S
    C180   O400      0.76153  1_455   S
    C184   O400      0.76153      .   S
    C180   O401      0.73318      .   S
    C181   O401      0.73318      .   S
    C184   O402      0.70160      .   S
    C183   O402      0.70160      .   S
    C201   O403      0.70160      .   S
    C200   O403      0.70160      .   S
    C188   O404      0.72880      .   S
    C191   O404      0.72880      .   S
    C188   O405      0.70570      .   S
    C187   O405      0.70570      .   S
    C171   O406      0.72881      .   S
    C174   O406      0.72881      .   S
    C171   O407      0.70570      .   S
    C170   O407      0.70570      .   S
    C174   O408      0.69478      .   S
    C173   O408      0.69478      .   S
    C191   O409      0.69484      .   S
    C190   O409      0.69484      .   S
    C121   O410      0.58872      .   S
    C219   O410      0.58872      .   S
    C104   O411      0.58872      .   S
    C214   O411      0.58872      .   S
    C110   O412      0.69314      .   S
    C118   O412      0.69314      .   S
    C110   O413      0.54518      .   S
    C21    O413      0.54518      .   S
    C127   O414      0.69314      .   S
    C135   O414      0.69314      .   S
    C127   O415      0.54518      .   S
    C29    O415      0.54518      .   S
    C118   O416      0.54442      .   S
    C20    O416      0.54442      .   S
    C135   O417      0.54488      .   S
    C28    O417      0.54488      .   S
    C131   O418      0.58277      .   S
    C223   O418      0.58277      .   S
    C114   O419      0.58277      .   S
    C218   O419      0.58277      .   S
    C181   O420      0.58321      .   S
    C236   O420      0.58321      .   S
    C198   O421      0.58273      .   S
    C241   O421      0.58273      .   S
    C200   O422      0.69350      .   S
    C187   O422      0.69350      .   S
    C200   O423      0.54491      .   S
    C63    O423      0.54491      .   S
    C183   O424      0.69350      .   S
    C170   O424      0.69350      .   S
    C183   O425      0.54491      .   S
    C55    O425      0.54491      .   S
    C187   O426      0.54483      .   S
    C62    O426      0.54483      .   S
    C170   O427      0.54483      .   S
    C54    O427      0.54483      .   S
    C173   O428      0.58871      .   S
    C235   O428      0.58871      .   S
    C190   O429      0.58864      .   S
    C240   O429      0.58864      .   S
    C219   O430      1.07191      .   S
    C1     O430      1.07191      .   S
    C214   O431      1.07191      .   S
    C1     O431      1.07191      .   S
    C240   O432      1.07657      .   S
    C0     O432      1.07657      .   S
    C235   O433      1.07658      .   S
    C0     O433      1.07658      .   S
    C33    O434      0.54503      .   S
    C124   O434      0.54503      .   S
    C25    O435      0.54502      .   S
    C107   O435      0.54502      .   S
    C32    O436      0.54368      .   S
    C125   O436      0.54368      .   S
    C24    O437      0.54468      .   S
    C108   O437      0.54468      .   S
    C19    O438      0.54467      .   S
    C94    O438      0.54467      .   S
    C11    O439      0.54460      .   S
    C77    O439      0.54460      .   S
    C10    O440      0.54499      .   S
    C83    O440      0.54499      .   S
    C18    O441      0.54499      .   S
    C100   O441      0.54499      .   S
    C124   O442      0.69452      .   S
    C125   O442      0.69452      .   S
    C124   O443      0.67390      .   S
    C222   O443      0.67390      .   S
    C107   O444      0.69468      .   S
    C108   O444      0.69468      .   S
    C107   O445      0.67390      .   S
    C217   O445      0.67390      .   S
    C125   O446      0.70336      .   S
    C126   O446      0.70336      .   S
    C108   O447      0.70225      .   S
    C109   O447      0.70225      .   S
    C77    O448      0.69471      .   S
    C83    O448      0.69471      .   S
    C77    O449      0.70225      .   S
    C75    O449      0.70225      .   S
    C94    O450      0.69470      .   S
    C100   O450      0.69470      .   S
    C94    O451      0.70220      .   S
    C92    O451      0.70220      .   S
    C100   O452      0.67379      .   S
    C212   O452      0.67379      .   S
    C83    O453      0.67379      .   S
    C207   O453      0.67379      .   S
    C1     O454      1.09432      .   S
    C222   O454      1.09432      .   S
    C1     O455      1.09432      .   S
    C217   O455      1.09432      .   S
    C1     O456      1.07651      .   S
    C225   O456      1.07651      .   S
    C1     O457      1.07651      .   S
    C230   O457      1.07651      .   S
    C222   O458      0.67365      .   S
    C134   O458      0.67365      .   S
    C217   O459      0.67379      .   S
    C117   O459      0.67379      .   S
    C109   O460      0.73951      .   S
    C75    O460      0.73951  1_565   S
    C109   O461      0.70220      .   S
    C111   O461      0.70220      .   S
    C126   O462      0.73969      .   S
    C92    O462      0.73969      .   S
    C126   O463      0.70219      .   S
    C128   O463      0.70219      .   S
    C92    O464      0.70225      .   S
    C91    O464      0.70225      .   S
    C75    O465      0.70226      .   S
    C74    O465      0.70226      .   S
    C207   O466      1.09431      .   S
    C0     O466      1.09431      .   S
    C207   O467      0.67391      .   S
    C73    O467      0.67391      .   S
    C212   O468      1.09432      .   S
    C0     O468      1.09432      .   S
    C212   O469      0.67390      .   S
    C90    O469      0.67390      .   S
    C0     O470      1.07190      .   S
    C209   O470      1.07190      .   S
    C0     O471      1.07190      .   S
    C204   O471      1.07190      .   S
    C134   O472      0.69472      .   S
    C128   O472      0.69472      .   S
    C134   O473      0.54512      .   S
    C34    O473      0.54512      .   S
    C117   O474      0.69470      .   S
    C111   O474      0.69470      .   S
    C117   O475      0.54500      .   S
    C26    O475      0.54500      .   S
    C128   O476      0.54467      .   S
    C35    O476      0.54467      .   S
    C111   O477      0.54466      .   S
    C27    O477      0.54466      .   S
    C74    O478      0.69467      .   S
    C73    O478      0.69467      .   S
    C74    O479      0.54469      .   S
    C8     O479      0.54469      .   S
    C91    O480      0.69467      .   S
    C90    O480      0.69467      .   S
    C91    O481      0.54469      .   S
    C16    O481      0.54469      .   S
    C90    O482      0.54502      .   S
    C17    O482      0.54502      .   S
    C73    O483      0.54502      .   S
    C9     O483      0.54502      .   S
    C225   O484      0.58869      .   S
    C139   O484      0.58869      .   S
    C230   O485      0.58869      .   S
    C156   O485      0.58869      .   S
    C46    O486      0.54483      .   S
    C153   O486      0.54483      .   S
    C38    O487      0.54483      .   S
    C136   O487      0.54483      .   S
    C39    O488      0.54491      .   S
    C149   O488      0.54491      .   S
    C47    O489      0.54491      .   S
    C166   O489      0.54491      .   S
    C231   O490      0.58273      .   S
    C164   O490      0.58273      .   S
    C226   O491      0.58273      .   S
    C147   O491      0.58273      .   S
    C208   O492      0.58259      .   S
    C80    O492      0.58259      .   S
    C213   O493      0.58277      .   S
    C97    O493      0.58277      .   S
    C4     O494      0.54488      .   S
    C84    O494      0.54488      .   S
    C12    O495      0.54489      .   S
    C101   O495      0.54489      .   S
    C5     O496      0.54531      .   S
    C76    O496      0.54531      .   S
    C13    O497      0.54531      .   S
    C93    O497      0.54531      .   S
    C209   O498      0.58870      .   S
    C87    O498      0.58870      .   S
    C204   O499      0.58870      .   S
    C70    O499      0.58870      .   S
    C156   O500      0.69483      .   S
    C157   O500      0.69483      .   S
    C139   O501      0.69483      .   S
    C140   O501      0.69483      .   S
    C153   O502      0.69350      .   S
    C166   O502      0.69350      .   S
    C153   O503      0.70570      .   S
    C154   O503      0.70570      .   S
    C136   O504      0.69351      .   S
    C149   O504      0.69351      .   S
    C136   O505      0.70570      .   S
    C137   O505      0.70570      .   S
    C149   O506      0.70160      .   S
    C150   O506      0.70160      .   S
    C166   O507      0.70160      .   S
    C167   O507      0.70160      .   S
    C147   O508      0.73366      .   S
    C146   O508      0.73366      .   S
    C164   O509      0.73366      .   S
    C163   O509      0.73366      .   S
    C101   O510      0.69312      .   S
    C93    O510      0.69312      .   S
    C84    O511      0.69313      .   S
    C76    O511      0.69313      .   S
    C140   O512      0.72880      .   S
    C137   O512      0.72880      .   S
    C157   O513      0.72881      .   S
    C154   O513      0.72881      .   S
    C150   O514      0.76152      .   S
    C146   O514      0.76152  1_455   S
    C167   O515      0.76152      .   S
    C163   O515      0.76152  1_655   S
