# CIF file generated by openbabel 2.4.90, see http://openbabel.sf.net
data_I
_chemical_name_common ''
_cell_length_a 12.549
_cell_length_b 22.954
_cell_length_c 14.84
_cell_angle_alpha 90
_cell_angle_beta 90
_cell_angle_gamma 89.999
_space_group_name_H-M_alt 'P 1'
_space_group_name_Hall 'P 1'
loop_
    _symmetry_equiv_pos_as_xyz
    x,y,z
loop_
    _atom_site_label
    _atom_site_type_symbol
    _atom_site_fract_x
    _atom_site_fract_y
    _atom_site_fract_z
    _atom_site_occupancy
    Zr0     Zr   0.50002   0.75001   0.76154   1.000
    Zr1     Zr   0.50002   0.25000   0.73845   1.000
    Zr2     Zr   0.50002   0.25000   0.23845   1.000
    Zr3     Zr   0.50002   0.75001   0.26155   1.000
    N4      N    0.30500   0.29001   0.98970   1.000
    N5      N    0.69504   0.71000   0.01029   1.000
    O6      O    0.59966   0.74536   0.16788   1.000
    O7      O    0.40095   0.25282   0.14521   1.000
    O8      O    0.40038   0.25465   0.83211   1.000
    O9      O    0.59909   0.74719   0.85478   1.000
    O10     O    0.14217   0.40058   0.99510   1.000
    N11     N    0.69504   0.20999   0.98970   1.000
    N12     N    0.30500   0.79002   0.01029   1.000
    O13     O    0.40096   0.75283   0.85478   1.000
    O14     O    0.59908   0.24718   0.14521   1.000
    O15     O    0.40039   0.75466   0.16788   1.000
    O16     O    0.59965   0.24535   0.83211   1.000
    O17     O    0.14217   0.90058   0.00489   1.000
    N18     N    0.50233   0.00001   0.24998   1.000
    O19     O    0.50172   0.89884   0.25531   1.000
    O20     O    0.50172   0.10117   0.24467   1.000
    N21     N    0.50233   0.50001   0.74996   1.000
    O22     O    0.50172   0.60117   0.75529   1.000
    O23     O    0.50172   0.39884   0.74466   1.000
    N24     N    0.69505   0.79002   0.51029   1.000
    N25     N    0.30499   0.20999   0.48970   1.000
    O26     O    0.40095   0.24718   0.64521   1.000
    O27     O    0.59966   0.75466   0.66787   1.000
    O28     O    0.40038   0.24536   0.33211   1.000
    O29     O    0.59909   0.75283   0.35478   1.000
    O30     O    0.14216   0.09943   0.49510   1.000
    N31     N    0.69504   0.29001   0.48970   1.000
    N32     N    0.30500   0.71000   0.51029   1.000
    O33     O    0.59965   0.25465   0.33211   1.000
    O34     O    0.40095   0.74719   0.35478   1.000
    O35     O    0.59909   0.25282   0.64521   1.000
    O36     O    0.40039   0.74536   0.66788   1.000
    O37     O    0.14217   0.59943   0.50489   1.000
    N38     N    0.49771   0.00001   0.74999   1.000
    O39     O    0.49832   0.10117   0.74468   1.000
    O40     O    0.49832   0.89884   0.75530   1.000
    N41     N    0.49771   0.50001   0.24995   1.000
    O42     O    0.49831   0.39884   0.24464   1.000
    O43     O    0.49832   0.60117   0.25529   1.000
loop_
    _geom_bond_atom_site_label_1
    _geom_bond_atom_site_label_2
    _geom_bond_distance
    _geom_bond_site_symmetry_2
    _ccdc_geom_bond_type
    N5     O6        2.74974      .   S
    Zr3    O6        1.87264      .   S
    N4     O7        2.73936  1_556   S
    Zr2    O7        1.86129      .   S
    N4     O8        2.74973      .   S
    Zr1    O8        1.87253      .   S
    N5     O9        2.73936  1_554   S
    Zr0    O9        1.86129      .   S
    N5     O10       9.05418  1_654   S
    N4     O10       3.25926      .   S
    N12    O13       2.73939  1_554   S
    Zr0    O13       1.86129      .   S
    N11    O14       2.73939  1_556   S
    Zr2    O14       1.86129      .   S
    N12    O15       2.74978      .   S
    Zr3    O15       1.87261      .   S
    N11    O16       2.74974      .   S
    Zr1    O16       1.87253      .   S
    N11    O17       9.05400  1_646   S
    N12    O17       3.25919      .   S
    N18    O19       2.32349  1_545   S
    Zr3    O19       3.41762      .   S
    N18    O20       2.32348      .   S
    Zr2    O20       3.41759      .   S
    N21    O22       2.32358      .   S
    Zr0    O22       3.41769      .   S
    N21    O23       2.32356      .   S
    Zr1    O23       3.41768      .   S
    N25    O26       2.73942      .   S
    Zr1    O26       1.86131      .   S
    N24    O27       2.74968      .   S
    Zr0    O27       1.87264      .   S
    N25    O28       2.74971      .   S
    Zr2    O28       1.87261      .   S
    N24    O29       2.73938      .   S
    Zr3    O29       1.86123      .   S
    N24    O30       9.05399  1_665   S
    N25    O30       3.25919      .   S
    N31    O33       2.74971      .   S
    Zr2    O33       1.87260      .   S
    N32    O34       2.73940      .   S
    Zr3    O34       1.86123      .   S
    N31    O35       2.73942      .   S
    Zr1    O35       1.86132      .   S
    N32    O36       2.74972      .   S
    Zr0    O36       1.87261      .   S
    N31    O37       9.05425  1_655   S
    N32    O37       3.25927      .   S
    N38    O39       2.32349      .   S
    Zr1    O39       3.41761      .   S
    N38    O40       2.32349  1_545   S
    Zr0    O40       3.41759      .   S
    N41    O42       2.32357      .   S
    Zr2    O42       3.41767      .   S
    N41    O43       2.32358      .   S
    Zr3    O43       3.41769      .   S
