# CIF file generated by openbabel 2.4.90, see http://openbabel.sf.net
data_I
_chemical_name_common ''
_cell_length_a 15.743
_cell_length_b 15.75
_cell_length_c 20.005
_cell_angle_alpha 90.001
_cell_angle_beta 90
_cell_angle_gamma 90.008
_space_group_name_H-M_alt 'P 1'
_space_group_name_Hall 'P 1'
loop_
    _symmetry_equiv_pos_as_xyz
    x,y,z
loop_
    _atom_site_label
    _atom_site_type_symbol
    _atom_site_fract_x
    _atom_site_fract_y
    _atom_site_fract_z
    _atom_site_occupancy
    Zn0     Zn   0.74843   0.24812   0.49995   1.000
    Zn1     Zn   0.74865   0.24808   0.99992   1.000
    Zn2     Zn   0.24843   0.74811   0.50002   1.000
    Zn3     Zn   0.08344   0.91516   0.99996   1.000
    Zn4     Zn   0.41500   0.58124   0.99999   1.000
    Zn5     Zn   0.58231   0.08127   0.50004   1.000
    Zn6     Zn   0.91475   0.41497   0.50003   1.000
    Zn7     Zn   0.91499   0.08125   0.99999   1.000
    Zn8     Zn   0.41478   0.91495   0.49994   1.000
    Zn9     Zn   0.08228   0.58125   0.49993   1.000
    Zn10    Zn   0.24866   0.74805   0.60000   1.000
loop_
    _geom_bond_atom_site_label_1
    _geom_bond_atom_site_label_2
    _geom_bond_distance
    _geom_bond_site_symmetry_2
    _ccdc_geom_bond_type
    Zn2    Zn10      2.00010      .   S
