# CIF file generated by openbabel 2.4.90, see http://openbabel.sf.net
data_I
_chemical_name_common ''
_cell_length_a 15.411
_cell_length_b 15.42
_cell_length_c 15.411
_cell_angle_alpha 60.015
_cell_angle_beta 60.035
_cell_angle_gamma 60.048
_space_group_name_H-M_alt 'P 1'
_space_group_name_Hall 'P 1'
loop_
    _symmetry_equiv_pos_as_xyz
    x,y,z
loop_
    _atom_site_label
    _atom_site_type_symbol
    _atom_site_fract_x
    _atom_site_fract_y
    _atom_site_fract_z
    _atom_site_occupancy
    H0      H    0.99987   0.33282   0.66749   1.000
    H1      H    0.33269   0.99992   0.99988   1.000
    H2      H    0.00014   0.66718   0.33252   1.000
    H3      H    0.00002   0.66714   0.00034   1.000
    H4      H    0.33273   0.00012   0.66740   1.000
    H5      H    0.66729   0.99987   0.33262   1.000
    H6      H    0.99998   0.33287   0.99965   1.000
    H7      H    0.00014   0.99980   0.33262   1.000
    H8      H    0.33266   0.66716   0.00025   1.000
    H9      H    0.66736   0.33285   0.99974   1.000
    H10     H    0.99987   0.00020   0.66740   1.000
    C11     C    0.05341   0.40003   0.49327   1.000
    C12     C    0.40003   0.05338   0.05334   1.000
    C13     C    0.49319   0.05342   0.05339   1.000
    C14     C    0.05347   0.49312   0.40006   1.000
    C15     C    0.05342   0.49308   0.05348   1.000
    C16     C    0.40003   0.05351   0.49320   1.000
    C17     C    0.49315   0.05342   0.40002   1.000
    C18     C    0.05341   0.40002   0.05333   1.000
    C19     C    0.05345   0.05335   0.40001   1.000
    C20     C    0.40007   0.49310   0.05351   1.000
    C21     C    0.49320   0.40004   0.05338   1.000
    C22     C    0.05338   0.05345   0.49319   1.000
    C23     C    0.60000   0.94649   0.50682   1.000
    C24     C    0.94661   0.59998   0.94668   1.000
    C25     C    0.94661   0.50692   0.94654   1.000
    C26     C    0.50687   0.94658   0.59999   1.000
    C27     C    0.50684   0.94658   0.94663   1.000
    C28     C    0.94661   0.59997   0.50674   1.000
    C29     C    0.94655   0.50688   0.59995   1.000
    C30     C    0.60000   0.94662   0.94660   1.000
    C31     C    0.94657   0.94665   0.60001   1.000
    C32     C    0.50682   0.59996   0.94660   1.000
    C33     C    0.59996   0.50690   0.94651   1.000
    C34     C    0.94665   0.94655   0.50682   1.000
    C35     C    0.99993   0.40347   0.59669   1.000
    C36     C    0.40340   0.99996   0.99993   1.000
    C37     C    0.59661   0.00004   0.30000   1.000
    C38     C    0.00007   0.59653   0.40332   1.000
    C39     C    0.99998   0.59651   0.00020   1.000
    C40     C    0.40343   0.00007   0.59665   1.000
    C41     C    0.59659   0.99993   0.40337   1.000
    C42     C    0.00002   0.40350   0.99979   1.000
    C43     C    0.00009   0.99987   0.40337   1.000
    C44     C    0.40340   0.59652   0.00014   1.000
    C45     C    0.59662   0.40349   0.99985   1.000
    C46     C    0.99991   0.00012   0.59665   1.000
    N47     N    0.11388   0.31454   0.45788   1.000
    N48     N    0.31453   0.11386   0.11376   1.000
    N49     N    0.45777   0.11391   0.11382   1.000
    N50     N    0.11397   0.45767   0.31450   1.000
    N51     N    0.11392   0.45759   0.11400   1.000
    N52     N    0.31451   0.11405   0.45775   1.000
    N53     N    0.45770   0.11394   0.31449   1.000
    N54     N    0.11392   0.31450   0.11370   1.000
    N55     N    0.11396   0.11381   0.31448   1.000
    N56     N    0.31457   0.45762   0.11405   1.000
    N57     N    0.45776   0.31453   0.11387   1.000
    N58     N    0.11385   0.11396   0.45775   1.000
    N59     N    0.68552   0.88595   0.54226   1.000
    N60     N    0.88611   0.68550   0.88624   1.000
    N61     N    0.88611   0.54241   0.88601   1.000
    N62     N    0.54233   0.88606   0.68552   1.000
    N63     N    0.54226   0.88609   0.88619   1.000
    N64     N    0.88614   0.68546   0.54213   1.000
    N65     N    0.88606   0.54233   0.68544   1.000
    N66     N    0.68549   0.88614   0.88626   1.000
    N67     N    0.88606   0.88619   0.68554   1.000
    N68     N    0.54226   0.68547   0.88610   1.000
    N69     N    0.68546   0.54238   0.88596   1.000
    N70     N    0.88618   0.88604   0.54226   1.000
    N71     N    0.14835   0.35172   0.35184   1.000
    N72     N    0.35176   0.14827   0.14819   1.000
    N73     N    0.14832   0.35164   0.14830   1.000
    N74     N    0.35170   0.14842   0.35171   1.000
    N75     N    0.14831   0.14830   0.35171   1.000
    N76     N    0.35176   0.35166   0.14830   1.000
    N77     N    0.64833   0.85158   0.64830   1.000
    N78     N    0.85170   0.64836   0.85171   1.000
    N79     N    0.64826   0.85173   0.85183   1.000
    N80     N    0.85167   0.64828   0.64818   1.000
    N81     N    0.85172   0.85170   0.64830   1.000
    N82     N    0.64827   0.64834   0.85164   1.000
loop_
    _geom_bond_atom_site_label_1
    _geom_bond_atom_site_label_2
    _geom_bond_distance
    _geom_bond_site_symmetry_2
    _ccdc_geom_bond_type
    C44    H8        1.09052      .   S
    C44    C20       1.39668      .   S
    C44    C32       1.39676  1_554   S
    C39    H3        1.09051  1_655   S
    C39    C15       1.39677  1_655   S
    C39    C24       1.39614  1_554   S
    C18    C15       1.43626      .   S
    C18    N54       1.37350      .   S
    C18    C42       1.39666  1_554   S
    C12    C13       1.43633      .   S
    C12    N48       1.37410      .   S
    C12    C36       1.39678  1_544   S
    C21    C20       1.43622      .   S
    C21    N57       1.37400      .   S
    C21    C45       1.39669  1_554   S
    C13    N49       1.37384      .   S
    C15    N51       1.37388      .   S
    C20    N56       1.37392      .   S
    N54    N73       1.33576      .   S
    N48    N72       1.33488      .   S
    N49    N72       1.33485      .   S
    N57    N76       1.33486      .   S
    N51    N73       1.33474      .   S
    N56    N76       1.33474      .   S
    N55    N75       1.33474      .   S
    N55    C19       1.37407      .   S
    N53    N74       1.33483      .   S
    N53    C17       1.37391      .   S
    N50    N71       1.33480      .   S
    N50    C14       1.37483      .   S
    H2     C38       1.09052      .   S
    H7     C43       1.09056      .   S
    H5     C41       1.09051      .   S
    N74    N52       1.33489      .   S
    N75    N58       1.33488      .   S
    N71    N47       1.33487      .   S
    C19    C43       1.39671  1_545   S
    C19    C22       1.43621      .   S
    C17    C41       1.39672  1_545   S
    C17    C16       1.43633      .   S
    C17    C37       1.76020      .   S
    C14    C38       1.39671      .   S
    C14    C11       1.43626      .   S
    C38    C28       1.39675  1_455   S
    C43    C34       1.39660  1_455   S
    C41    C23       1.39668      .   S
    C41    C37       1.59202  1_565   S
    N58    C22       1.37399      .   S
    N52    C16       1.37403      .   S
    N47    C11       1.37400      .   S
    C22    C46       1.39681  1_455   S
    C16    C40       1.39668      .   S
    C11    C35       1.39676  1_455   S
    C28    N64       1.37402      .   S
    C28    C29       1.43626      .   S
    C34    N70       1.37400      .   S
    C34    C31       1.43636      .   S
    C23    N59       1.37395      .   S
    C23    C26       1.43626      .   S
    N64    N80       1.33500      .   S
    N70    N81       1.33488      .   S
    N59    N77       1.33489      .   S
    C40    C26       1.39668  1_545   S
    C40    H4        1.09052      .   S
    C46    C31       1.39637  1_545   S
    C46    H10       1.09056      .   S
    C35    C29       1.39670      .   S
    C35    H0        1.09053      .   S
    C29    N65       1.37394      .   S
    C26    N62       1.37392      .   S
    C31    N67       1.37407      .   S
    N80    N65       1.33478      .   S
    N77    N62       1.33482      .   S
    N81    N67       1.33488      .   S
    N82    N69       1.33475      .   S
    N82    N68       1.33486      .   S
    N78    N61       1.33473      .   S
    N78    N60       1.33489      .   S
    N79    N63       1.33485      .   S
    N79    N66       1.33486      .   S
    N69    C33       1.37393      .   S
    N61    C25       1.37401      .   S
    N68    C32       1.37398      .   S
    N63    C27       1.37394      .   S
    N60    C24       1.37409      .   S
    N66    C30       1.37345      .   S
    C33    C32       1.43622      .   S
    C33    C45       1.39660      .   S
    C25    C24       1.43616      .   S
    C25    C42       1.39645  1_655   S
    C30    C27       1.43574      .   S
    C27    C36       1.39674      .   S
    H6     C42       1.09051  1_655   S
    H9     C45       1.09053      .   S
    H1     C36       1.09053      .   S
