# CIF file generated by openbabel 2.4.90, see http://openbabel.sf.net
data_I
_chemical_name_common ''
_cell_length_a 15.411
_cell_length_b 15.42
_cell_length_c 15.411
_cell_angle_alpha 60.015
_cell_angle_beta 60.035
_cell_angle_gamma 60.048
_space_group_name_H-M_alt 'P 1'
_space_group_name_Hall 'P 1'
loop_
    _symmetry_equiv_pos_as_xyz
    x,y,z
loop_
    _atom_site_label
    _atom_site_type_symbol
    _atom_site_fract_x
    _atom_site_fract_y
    _atom_site_fract_z
    _atom_site_occupancy
    Zn0     Zn   0.15414   0.15419   0.15404   1.000
    Zn1     Zn   0.53755   0.15428   0.15411   1.000
    Zn2     Zn   0.15428   0.53739   0.15422   1.000
    Zn3     Zn   0.84588   0.84575   0.46240   1.000
    Zn4     Zn   0.84588   0.84581   0.84597   1.000
    Zn5     Zn   0.84575   0.46261   0.84580   1.000
    Zn6     Zn   0.46248   0.84572   0.84591   1.000
    Zn7     Zn   0.25003   0.24999   0.25002   1.000
    Zn8     Zn   0.75000   0.75001   0.75000   1.000
    Zn9     Zn   0.15415   0.15425   0.53762   1.000
