# CIF file generated by openbabel 2.4.90, see http://openbabel.sf.net
data_I
_chemical_name_common ''
_cell_length_a 14.828
_cell_length_b 14.816
_cell_length_c 16.775
_cell_angle_alpha 102.675
_cell_angle_beta 102.684
_cell_angle_gamma 115.839
_space_group_name_H-M_alt 'P 1'
_space_group_name_Hall 'P 1'
loop_
    _symmetry_equiv_pos_as_xyz
    x,y,z
loop_
    _atom_site_label
    _atom_site_type_symbol
    _atom_site_fract_x
    _atom_site_fract_y
    _atom_site_fract_z
    _atom_site_occupancy
    H0      H    0.47733   0.53783   0.83414   1.000
    H1      H    0.57879   0.44247   0.84376   1.000
    H2      H    0.87440   0.74247   0.92363   1.000
    H3      H    0.77100   0.83721   0.91382   1.000
    H4      H    0.13367   0.60326   0.91597   1.000
    H5      H    0.98646   0.56721   0.97568   1.000
    H6      H    0.78913   0.55709   0.73939   1.000
    H7      H    0.93562   0.59102   0.67946   1.000
    H8      H    0.61239   0.33415   0.04027   1.000
    H9      H    0.69800   0.50296   0.01101   1.000
    H10     H    0.80390   0.35614   0.82989   1.000
    H11     H    0.72329   0.18958   0.86405   1.000
    H12     H    0.46160   0.52268   0.66508   1.000
    H13     H    0.55727   0.42153   0.65570   1.000
    H14     H    0.25789   0.12531   0.57594   1.000
    H15     H    0.16282   0.22841   0.58547   1.000
    H16     H    0.39656   0.86615   0.58379   1.000
    H17     H    0.43285   0.01355   0.52410   1.000
    H18     H    0.44355   0.21130   0.76054   1.000
    H19     H    0.40929   0.06458   0.82042   1.000
    H20     H    0.66638   0.38816   0.45988   1.000
    H21     H    0.49759   0.30255   0.48898   1.000
    H22     H    0.64383   0.19611   0.67002   1.000
    H23     H    0.81031   0.27657   0.63590   1.000
    H24     H    0.52267   0.46220   0.16585   1.000
    H25     H    0.42121   0.55755   0.15623   1.000
    H26     H    0.12560   0.25755   0.07636   1.000
    H27     H    0.22899   0.16281   0.08616   1.000
    H28     H    0.86633   0.39676   0.08401   1.000
    H29     H    0.01353   0.43281   0.02431   1.000
    H30     H    0.21087   0.44293   0.26060   1.000
    H31     H    0.06438   0.40900   0.32053   1.000
    H32     H    0.38761   0.66587   0.95972   1.000
    H33     H    0.30200   0.49706   0.98898   1.000
    H34     H    0.19610   0.64388   0.17010   1.000
    H35     H    0.27671   0.81045   0.13594   1.000
    H36     H    0.53840   0.47734   0.33491   1.000
    H37     H    0.44272   0.57850   0.34428   1.000
    H38     H    0.74210   0.87471   0.42405   1.000
    H39     H    0.83718   0.77162   0.41451   1.000
    H40     H    0.60344   0.13387   0.41620   1.000
    H41     H    0.56715   0.98647   0.47586   1.000
    H42     H    0.55645   0.78872   0.23945   1.000
    H43     H    0.59071   0.93544   0.17957   1.000
    H44     H    0.33362   0.61186   0.54010   1.000
    H45     H    0.50241   0.69747   0.51100   1.000
    H46     H    0.35617   0.80392   0.32996   1.000
    H47     H    0.18969   0.72345   0.36408   1.000
    C48     C    0.61739   0.69371   0.87416   1.000
    C49     C    0.56443   0.58229   0.85486   1.000
    C50     C    0.62129   0.52906   0.86013   1.000
    C51     C    0.73374   0.58622   0.88581   1.000
    C52     C    0.78731   0.69779   0.90415   1.000
    C53     C    0.72962   0.75066   0.89850   1.000
    C54     C    0.04318   0.59789   0.79350   1.000
    C55     C    0.05770   0.59209   0.87748   1.000
    C56     C    0.97576   0.57217   0.91072   1.000
    C57     C    0.87832   0.55857   0.86075   1.000
    C58     C    0.86478   0.56756   0.77797   1.000
    C59     C    0.94644   0.58650   0.74452   1.000
    C60     C    0.65987   0.24999   0.95216   1.000
    C61     C    0.65378   0.33932   0.99383   1.000
    C62     C    0.70203   0.43372   0.97760   1.000
    C63     C    0.75373   0.43994   0.91623   1.000
    C64     C    0.76328   0.35185   0.87687   1.000
    C65     C    0.71771   0.25859   0.89555   1.000
    C66     C    0.30601   0.38230   0.62512   1.000
    C67     C    0.41735   0.43552   0.64443   1.000
    C68     C    0.47075   0.37882   0.63929   1.000
    C69     C    0.41385   0.26630   0.61376   1.000
    C70     C    0.30235   0.21247   0.59533   1.000
    C71     C    0.24930   0.26999   0.60084   1.000
    C72     C    0.40207   0.95681   0.70628   1.000
    C73     C    0.40787   0.94225   0.62230   1.000
    C74     C    0.42793   0.02428   0.58909   1.000
    C75     C    0.44170   0.12185   0.63909   1.000
    C76     C    0.43286   0.13549   0.72190   1.000
    C77     C    0.41374   0.05371   0.75533   1.000
    C78     C    0.75019   0.34029   0.54789   1.000
    C79     C    0.66107   0.34664   0.50620   1.000
    C80     C    0.56670   0.29841   0.52236   1.000
    C81     C    0.56032   0.24654   0.58370   1.000
    C82     C    0.64824   0.23682   0.62308   1.000
    C83     C    0.74145   0.28232   0.60443   1.000
    C84     C    0.38261   0.30632   0.12582   1.000
    C85     C    0.43557   0.41774   0.14512   1.000
    C86     C    0.37870   0.47096   0.13985   1.000
    C87     C    0.26626   0.41380   0.11418   1.000
    C88     C    0.21269   0.30223   0.09583   1.000
    C89     C    0.27038   0.24936   0.10149   1.000
    C90     C    0.95682   0.40213   0.20649   1.000
    C91     C    0.94230   0.40794   0.12251   1.000
    C92     C    0.02424   0.42785   0.08927   1.000
    C93     C    0.12168   0.44146   0.13923   1.000
    C94     C    0.13522   0.43246   0.22202   1.000
    C95     C    0.05355   0.41352   0.25546   1.000
    C96     C    0.34012   0.75003   0.04780   1.000
    C97     C    0.34622   0.66070   0.00610   1.000
    C98     C    0.29797   0.56630   0.02234   1.000
    C99     C    0.24626   0.56008   0.08375   1.000
    C100    C    0.23671   0.64817   0.12312   1.000
    C101    C    0.28229   0.74144   0.10444   1.000
    C102    C    0.69399   0.61772   0.37487   1.000
    C103    C    0.58265   0.56451   0.35556   1.000
    C104    C    0.52925   0.62120   0.36069   1.000
    C105    C    0.58614   0.73372   0.38623   1.000
    C106    C    0.69764   0.78755   0.40466   1.000
    C107    C    0.75069   0.73004   0.39910   1.000
    C108    C    0.59793   0.04322   0.29371   1.000
    C109    C    0.59213   0.05778   0.37769   1.000
    C110    C    0.57207   0.97575   0.41089   1.000
    C111    C    0.55829   0.87817   0.36089   1.000
    C112    C    0.56714   0.86453   0.27806   1.000
    C113    C    0.58626   0.94631   0.24465   1.000
    C114    C    0.24981   0.65973   0.45210   1.000
    C115    C    0.33893   0.65339   0.49373   1.000
    C116    C    0.43330   0.70162   0.47762   1.000
    C117    C    0.43968   0.75349   0.41629   1.000
    C118    C    0.35176   0.76320   0.37691   1.000
    C119    C    0.25854   0.71771   0.39555   1.000
    N120    N    0.79243   0.53238   0.89309   1.000
    N121    N    0.46789   0.20780   0.60673   1.000
    N122    N    0.20757   0.46764   0.10690   1.000
    N123    N    0.53211   0.79223   0.39326   1.000
loop_
    _geom_bond_atom_site_label_1
    _geom_bond_atom_site_label_2
    _geom_bond_distance
    _geom_bond_site_symmetry_2
    _ccdc_geom_bond_type
    C97    C98       1.38656      .   S
    C97    C96       1.40537      .   S
    C97    H32       1.08753  1_554   S
    H9     C62       1.08903  1_554   S
    C98    C99       1.40871      .   S
    C98    H33       1.08876  1_554   S
    H29    C92       1.08967      .   S
    H8     C61       1.08839  1_554   S
    C96    C101      1.40365      .   S
    H26    C88       1.08966      .   S
    C99    N122      1.41495      .   S
    C99    C100      1.40839      .   S
    H28    C91       1.08840      .   S
    H27    C89       1.08948      .   S
    C92    C91       1.38972  1_455   S
    C92    C93       1.40388      .   S
    C88    C89       1.39115      .   S
    C88    C87       1.40821      .   S
    C89    C84       1.40521      .   S
    C101   C100      1.39043      .   S
    C101   H35       1.08959      .   S
    N122   C87       1.41765      .   S
    N122   C93       1.42534      .   S
    C87    C86       1.40589      .   S
    C91    C90       1.40517      .   S
    C100   H34       1.08852      .   S
    C84    C85       1.40374      .   S
    C93    C94       1.40317      .   S
    C86    C85       1.38495      .   S
    C86    H25       1.08767      .   S
    C85    H24       1.08790      .   S
    H43    C113      1.08897      .   S
    C90    C95       1.40413  1_655   S
    C94    C95       1.38954      .   S
    C94    H30       1.08940      .   S
    H42    C112      1.08936      .   S
    C113   C112      1.38959      .   S
    C113   C108      1.40392  1_565   S
    C95    H31       1.08913      .   S
    C112   C111      1.40304      .   S
    C108   C109      1.40520      .   S
    H46    C118      1.08865      .   S
    H36    C103      1.08791      .   S
    H37    C104      1.08770      .   S
    C103   C104      1.38491      .   S
    C103   C102      1.40375      .   S
    C104   C105      1.40586      .   S
    C111   N123      1.42548      .   S
    C111   C110      1.40378      .   S
    H47    C119      1.08957      .   S
    C102   C107      1.40524      .   S
    C118   C119      1.39027      .   S
    C118   C117      1.40841      .   S
    C109   C110      1.38935  1_545   S
    C109   H40       1.08833      .   S
    C105   N123      1.41754      .   S
    C105   C106      1.40821      .   S
    N123   C117      1.41462      .   S
    C119   C114      1.40325      .   S
    C107   C106      1.39114      .   S
    C107   H39       1.08938      .   S
    C106   H38       1.08966      .   S
    C110   H41       1.08969      .   S
    C117   C116      1.40868      .   S
    C114   C115      1.40519      .   S
    H20    C79       1.08758      .   S
    C116   C115      1.38601      .   S
    C116   H45       1.08880      .   S
    H21    C80       1.08880      .   S
    C115   H44       1.08832      .   S
    C79    C80       1.38646      .   S
    C79    C78       1.40550      .   S
    C80    C81       1.40881      .   S
    H17    C74       1.09000      .   S
    C78    C83       1.40311      .   S
    H14    C70       1.08966      .   S
    C81    N121      1.41462      .   S
    C81    C82       1.40842      .   S
    H16    C73       1.08833      .   S
    H15    C71       1.08948      .   S
    C74    C73       1.38948  1_545   S
    C74    C75       1.40379      .   S
    C70    C71       1.39108      .   S
    C70    C69       1.40822      .   S
    C71    C66       1.40517      .   S
    C83    C82       1.39038      .   S
    C83    H23       1.08957      .   S
    N121   C69       1.41754      .   S
    N121   C75       1.42540      .   S
    C69    C68       1.40586      .   S
    C73    C72       1.40519      .   S
    C82    H22       1.08850      .   S
    C66    C67       1.40375      .   S
    C75    C76       1.40267      .   S
    C68    C67       1.38493      .   S
    C68    H13       1.08770      .   S
    C67    H12       1.08791      .   S
    H7     C59       1.08897      .   S
    C72    C77       1.40386  1_565   S
    C76    C77       1.38983      .   S
    C76    H18       1.08953      .   S
    H6     C58       1.08939      .   S
    C59    C58       1.38965      .   S
    C59    C54       1.40418  1_655   S
    C77    H19       1.08913      .   S
    C58    C57       1.40300      .   S
    C54    C55       1.40517      .   S
    H10    C64       1.08852      .   S
    H0     C49       1.08791      .   S
    H1     C50       1.08771      .   S
    C49    C50       1.38495      .   S
    C49    C48       1.40374      .   S
    C50    C51       1.40587      .   S
    C57    N120      1.42545      .   S
    C57    C56       1.40394      .   S
    H11    C65       1.08958      .   S
    C48    C53       1.40520      .   S
    C64    C65       1.39043      .   S
    C64    C63       1.40834      .   S
    C55    C56       1.38973  1_455   S
    C55    H4        1.08834      .   S
    C51    N120      1.41765      .   S
    C51    C52       1.40823      .   S
    N120   C63       1.41486      .   S
    C65    C60       1.40324      .   S
    C53    C52       1.39114      .   S
    C53    H3        1.08951      .   S
    C52    H2        1.08964      .   S
    C56    H5        1.08967      .   S
    C63    C62       1.40813      .   S
    C60    C61       1.40521      .   S
    C62    C61       1.38648      .   S
