# CIF file generated by openbabel 2.4.90, see http://openbabel.sf.net
data_I
_chemical_name_common ''
_cell_length_a 14.828
_cell_length_b 14.816
_cell_length_c 16.775
_cell_angle_alpha 102.675
_cell_angle_beta 102.684
_cell_angle_gamma 115.839
_space_group_name_H-M_alt 'P 1'
_space_group_name_Hall 'P 1'
loop_
    _symmetry_equiv_pos_as_xyz
    x,y,z
loop_
    _atom_site_label
    _atom_site_type_symbol
    _atom_site_fract_x
    _atom_site_fract_y
    _atom_site_fract_z
    _atom_site_occupancy
    Zn0     Zn   0.07463   0.47341   0.57820   1.000
    Zn1     Zn   0.47409   0.07509   0.07879   1.000
    Zn2     Zn   0.92537   0.52661   0.42178   1.000
    Zn3     Zn   0.32889   0.67073   0.74980   1.000
    Zn4     Zn   0.67111   0.32929   0.25011   1.000
    H5      H    0.47733   0.53783   0.83414   1.000
    H6      H    0.57879   0.44247   0.84376   1.000
    H7      H    0.87440   0.74247   0.92363   1.000
    H8      H    0.77100   0.83721   0.91382   1.000
    H9      H    0.13367   0.60326   0.91597   1.000
    H10     H    0.98646   0.56721   0.97568   1.000
    H11     H    0.78913   0.55709   0.73939   1.000
    H12     H    0.93562   0.59102   0.67946   1.000
    H13     H    0.61239   0.33415   0.04027   1.000
    H14     H    0.69800   0.50296   0.01101   1.000
    H15     H    0.80390   0.35614   0.82989   1.000
    H16     H    0.72329   0.18958   0.86405   1.000
    H17     H    0.46160   0.52268   0.66508   1.000
    H18     H    0.55727   0.42153   0.65570   1.000
    H19     H    0.25789   0.12531   0.57594   1.000
    H20     H    0.16282   0.22841   0.58547   1.000
    H21     H    0.39656   0.86615   0.58379   1.000
    H22     H    0.43285   0.01355   0.52410   1.000
    H23     H    0.44355   0.21130   0.76054   1.000
    H24     H    0.40929   0.06458   0.82042   1.000
    H25     H    0.66638   0.38816   0.45988   1.000
    H26     H    0.49759   0.30255   0.48898   1.000
    H27     H    0.64383   0.19611   0.67002   1.000
    H28     H    0.81031   0.27657   0.63590   1.000
    H29     H    0.52267   0.46220   0.16585   1.000
    H30     H    0.42121   0.55755   0.15623   1.000
    H31     H    0.12560   0.25755   0.07636   1.000
    Zn32    Zn   0.52590   0.92493   0.92119   1.000
    H33     H    0.22899   0.16281   0.08616   1.000
    H34     H    0.86633   0.39676   0.08401   1.000
    H35     H    0.01353   0.43281   0.02431   1.000
    H36     H    0.21087   0.44293   0.26060   1.000
    H37     H    0.06438   0.40900   0.32053   1.000
    H38     H    0.38761   0.66587   0.95972   1.000
    H39     H    0.30200   0.49706   0.98898   1.000
    H40     H    0.19610   0.64388   0.17010   1.000
    H41     H    0.27671   0.81045   0.13594   1.000
    H42     H    0.53840   0.47734   0.33491   1.000
    H43     H    0.44272   0.57850   0.34428   1.000
    H44     H    0.74210   0.87471   0.42405   1.000
    H45     H    0.83718   0.77162   0.41451   1.000
    H46     H    0.60344   0.13387   0.41620   1.000
    H47     H    0.56715   0.98647   0.47586   1.000
    H48     H    0.55645   0.78872   0.23945   1.000
    H49     H    0.59071   0.93544   0.17957   1.000
    H50     H    0.33362   0.61186   0.54010   1.000
    H51     H    0.50241   0.69747   0.51100   1.000
    H52     H    0.35617   0.80392   0.32996   1.000
    H53     H    0.18969   0.72345   0.36408   1.000
    C54     C    0.55318   0.74747   0.86776   1.000
    C55     C    0.61739   0.69371   0.87416   1.000
    C56     C    0.56443   0.58229   0.85486   1.000
    C57     C    0.62129   0.52906   0.86013   1.000
    C58     C    0.73374   0.58622   0.88581   1.000
    C59     C    0.78731   0.69779   0.90415   1.000
    C60     C    0.72962   0.75066   0.89850   1.000
    C61     C    0.12774   0.61287   0.75530   1.000
    C62     C    0.04318   0.59789   0.79350   1.000
    C63     C    0.05770   0.59209   0.87748   1.000
    C64     C    0.97576   0.57217   0.91072   1.000
    C65     C    0.87832   0.55857   0.86075   1.000
    C66     C    0.86478   0.56756   0.77797   1.000
    C67     C    0.94644   0.58650   0.74452   1.000
    C68     C    0.60183   0.14746   0.96563   1.000
    C69     C    0.65987   0.24999   0.95216   1.000
    C70     C    0.65378   0.33932   0.99383   1.000
    C71     C    0.70203   0.43372   0.97760   1.000
    C72     C    0.75373   0.43994   0.91623   1.000
    C73     C    0.76328   0.35185   0.87687   1.000
    C74     C    0.71771   0.25859   0.89555   1.000
    C75     C    0.25205   0.44632   0.63151   1.000
    C76     C    0.30601   0.38230   0.62512   1.000
    C77     C    0.41735   0.43552   0.64443   1.000
    C78     C    0.47075   0.37882   0.63929   1.000
    C79     C    0.41385   0.26630   0.61376   1.000
    C80     C    0.30235   0.21247   0.59533   1.000
    C81     C    0.24930   0.26999   0.60084   1.000
    C82     C    0.38681   0.87208   0.74440   1.000
    C83     C    0.40207   0.95681   0.70628   1.000
    C84     C    0.40787   0.94225   0.62230   1.000
    C85     C    0.42793   0.02428   0.58909   1.000
    C86     C    0.44170   0.12185   0.63909   1.000
    C87     C    0.43286   0.13549   0.72190   1.000
    C88     C    0.41374   0.05371   0.75533   1.000
    C89     C    0.85266   0.39819   0.53443   1.000
    C90     C    0.75019   0.34029   0.54789   1.000
    C91     C    0.66107   0.34664   0.50620   1.000
    C92     C    0.56670   0.29841   0.52236   1.000
    C93     C    0.56032   0.24654   0.58370   1.000
    C94     C    0.64824   0.23682   0.62308   1.000
    C95     C    0.74145   0.28232   0.60443   1.000
    C96     C    0.44682   0.25256   0.13222   1.000
    C97     C    0.38261   0.30632   0.12582   1.000
    C98     C    0.43557   0.41774   0.14512   1.000
    C99     C    0.37870   0.47096   0.13985   1.000
    C100    C    0.26626   0.41380   0.11418   1.000
    C101    C    0.21269   0.30223   0.09583   1.000
    C102    C    0.27038   0.24936   0.10149   1.000
    C103    C    0.87226   0.38716   0.24468   1.000
    C104    C    0.95682   0.40213   0.20649   1.000
    C105    C    0.94230   0.40794   0.12251   1.000
    C106    C    0.02424   0.42785   0.08927   1.000
    C107    C    0.12168   0.44146   0.13923   1.000
    C108    C    0.13522   0.43246   0.22202   1.000
    C109    C    0.05355   0.41352   0.25546   1.000
    C110    C    0.39817   0.85256   0.03436   1.000
    C111    C    0.34012   0.75003   0.04780   1.000
    C112    C    0.34622   0.66070   0.00610   1.000
    C113    C    0.29797   0.56630   0.02234   1.000
    C114    C    0.24626   0.56008   0.08375   1.000
    C115    C    0.23671   0.64817   0.12312   1.000
    C116    C    0.28229   0.74144   0.10444   1.000
    C117    C    0.74795   0.55371   0.36848   1.000
    C118    C    0.69399   0.61772   0.37487   1.000
    C119    C    0.58265   0.56451   0.35556   1.000
    C120    C    0.52925   0.62120   0.36069   1.000
    C121    C    0.58614   0.73372   0.38623   1.000
    C122    C    0.69764   0.78755   0.40466   1.000
    C123    C    0.75069   0.73004   0.39910   1.000
    C124    C    0.61318   0.12794   0.25550   1.000
    C125    C    0.59793   0.04322   0.29371   1.000
    C126    C    0.59213   0.05778   0.37769   1.000
    C127    C    0.57207   0.97575   0.41089   1.000
    C128    C    0.55829   0.87817   0.36089   1.000
    C129    C    0.56714   0.86453   0.27806   1.000
    C130    C    0.58626   0.94631   0.24465   1.000
    C131    C    0.14734   0.60183   0.46555   1.000
    C132    C    0.24981   0.65973   0.45210   1.000
    C133    C    0.33893   0.65339   0.49373   1.000
    C134    C    0.43330   0.70162   0.47762   1.000
    C135    C    0.43968   0.75349   0.41629   1.000
    C136    C    0.35176   0.76320   0.37691   1.000
    C137    C    0.25854   0.71771   0.39555   1.000
    N138    N    0.79243   0.53238   0.89309   1.000
    N139    N    0.46789   0.20780   0.60673   1.000
    N140    N    0.20757   0.46764   0.10690   1.000
    N141    N    0.53211   0.79223   0.39326   1.000
    O142    O    0.45121   0.68772   0.84248   1.000
    O143    O    0.60272   0.84982   0.88920   1.000
    O144    O    0.21979   0.63672   0.80534   1.000
    O145    O    0.10608   0.60195   0.67420   1.000
    O146    O    0.52581   0.13551   0.99443   1.000
    O147    O    0.62782   0.07620   0.94459   1.000
    O148    O    0.31155   0.54841   0.65690   1.000
    O149    O    0.14976   0.39651   0.60997   1.000
    O150    O    0.36300   0.77997   0.69440   1.000
    O151    O    0.39745   0.89366   0.82540   1.000
    O152    O    0.86501   0.47467   0.50606   1.000
    O153    O    0.92352   0.37165   0.55507   1.000
    O154    O    0.54879   0.31230   0.15750   1.000
    O155    O    0.39727   0.15020   0.11078   1.000
    O156    O    0.78021   0.36331   0.19464   1.000
    O157    O    0.89391   0.39807   0.32573   1.000
    O158    O    0.47419   0.86451   0.00555   1.000
    O159    O    0.37218   0.92382   0.05540   1.000
    O160    O    0.68845   0.45162   0.34300   1.000
    O161    O    0.85024   0.60351   0.39001   1.000
    O162    O    0.63699   0.22006   0.30559   1.000
    O163    O    0.60255   0.10636   0.17459   1.000
    O164    O    0.13499   0.52536   0.49393   1.000
    O165    O    0.07648   0.62838   0.44492   1.000
loop_
    _geom_bond_atom_site_label_1
    _geom_bond_atom_site_label_2
    _geom_bond_distance
    _geom_bond_site_symmetry_2
    _ccdc_geom_bond_type
    O158   C110      1.27995      .   S
    O158   Zn32      1.95610  1_554   S
    C112   C113      1.38656      .   S
    C112   C111      1.40537      .   S
    C112   H38       1.08753  1_554   S
    H14    C71       1.08903  1_554   S
    C113   C114      1.40871      .   S
    C113   H39       1.08876  1_554   S
    H35    C106      1.08967      .   S
    C110   C111      1.48157      .   S
    C110   O159      1.28011      .   S
    H13    C70       1.08839  1_554   S
    C111   C116      1.40365      .   S
    O159   Zn1       1.96520  1_565   S
    H31    C101      1.08966      .   S
    Zn1    O155      1.98372      .   S
    Zn1    O163      1.99627      .   S
    Zn1    O146      1.95610  1_554   S
    C114   N140      1.41495      .   S
    C114   C115      1.40839      .   S
    H34    C105      1.08840      .   S
    H33    C102      1.08948      .   S
    C106   C105      1.38972  1_455   S
    C106   C107      1.40388      .   S
    C101   C102      1.39115      .   S
    C101   C100      1.40821      .   S
    C102   C97       1.40521      .   S
    C116   C115      1.39043      .   S
    C116   H41       1.08959      .   S
    N140   C100      1.41765      .   S
    N140   C107      1.42534      .   S
    O155   C96       1.28157      .   S
    C100   C99       1.40589      .   S
    C105   C104      1.40517      .   S
    C115   H40       1.08852      .   S
    C97    C96       1.48524      .   S
    C97    C98       1.40374      .   S
    C96    O154      1.27935      .   S
    C107   C108      1.40317      .   S
    C99    C98       1.38495      .   S
    C99    H30       1.08767      .   S
    C98    H29       1.08790      .   S
    O154   Zn4       1.98981      .   S
    O163   C124      1.28100      .   S
    H49    C130      1.08897      .   S
    O156   C103      1.28016      .   S
    O156   Zn4       1.97307      .   S
    C104   C103      1.48471      .   S
    C104   C109      1.40413  1_655   S
    C108   C109      1.38954      .   S
    C108   H36       1.08940      .   S
    H48    C129      1.08936      .   S
    C130   C129      1.38959      .   S
    C130   C125      1.40392  1_565   S
    C103   O157      1.28232      .   S
    Zn4    O162      1.97368      .   S
    Zn4    O160      1.98930      .   S
    C109   H37       1.08913      .   S
    C124   C125      1.48564      .   S
    C124   O162      1.28047      .   S
    C129   C128      1.40304      .   S
    C125   C126      1.40520      .   S
    O157   Zn2       1.99741      .   S
    H52    C136      1.08865      .   S
    H42    C119      1.08791      .   S
    O160   C117      1.27920      .   S
    H43    C120      1.08770      .   S
    C119   C120      1.38491      .   S
    C119   C118      1.40375      .   S
    C120   C121      1.40586      .   S
    C128   N141      1.42548      .   S
    C128   C127      1.40378      .   S
    H53    C137      1.08957      .   S
    C117   C118      1.48517      .   S
    C117   O161      1.28160      .   S
    C118   C123      1.40524      .   S
    C136   C137      1.39027      .   S
    C136   C135      1.40841      .   S
    C126   C127      1.38935  1_545   S
    C126   H46       1.08833      .   S
    C121   N141      1.41754      .   S
    C121   C122      1.40821      .   S
    O161   Zn2       1.98369      .   S
    N141   C135      1.41462      .   S
    C137   C132      1.40325      .   S
    C123   C122      1.39114      .   S
    C123   H45       1.08938      .   S
    C122   H44       1.08966      .   S
    C127   H47       1.08969      .   S
    C135   C134      1.40868      .   S
    Zn2    O165      1.96493  1_655   S
    Zn2    O152      1.95572      .   S
    O165   C131      1.28014      .   S
    C132   C131      1.48140      .   S
    C132   C133      1.40519      .   S
    H25    C91       1.08758      .   S
    C131   O164      1.27994      .   S
    C134   C133      1.38601      .   S
    C134   H51       1.08880      .   S
    H26    C92       1.08880      .   S
    C133   H50       1.08832      .   S
    O164   Zn0       1.95556      .   S
    O152   C89       1.27984      .   S
    C91    C92       1.38646      .   S
    C91    C90       1.40550      .   S
    C92    C93       1.40881      .   S
    H22    C85       1.09000      .   S
    C89    C90       1.48150      .   S
    C89    O153      1.28015      .   S
    C90    C95       1.40311      .   S
    O153   Zn0       1.96496  1_655   S
    H19    C80       1.08966      .   S
    Zn0    O149      1.98370      .   S
    Zn0    O145      1.99695      .   S
    C93    N139      1.41462      .   S
    C93    C94       1.40842      .   S
    H21    C84       1.08833      .   S
    H20    C81       1.08948      .   S
    C85    C84       1.38948  1_545   S
    C85    C86       1.40379      .   S
    C80    C81       1.39108      .   S
    C80    C79       1.40822      .   S
    C81    C76       1.40517      .   S
    C95    C94       1.39038      .   S
    C95    H28       1.08957      .   S
    N139   C79       1.41754      .   S
    N139   C86       1.42540      .   S
    O149   C75       1.28158      .   S
    C79    C78       1.40586      .   S
    C84    C83       1.40519      .   S
    C94    H27       1.08850      .   S
    C76    C75       1.48516      .   S
    C76    C77       1.40375      .   S
    C75    O148      1.27932      .   S
    C86    C87       1.40267      .   S
    C78    C77       1.38493      .   S
    C78    H18       1.08770      .   S
    C77    H17       1.08791      .   S
    O148   Zn3       1.98939      .   S
    O145   C61       1.28314      .   S
    H12    C67       1.08897      .   S
    O150   C82       1.27993      .   S
    O150   Zn3       1.97274      .   S
    C83    C82       1.48469      .   S
    C83    C88       1.40386  1_565   S
    C87    C88       1.38983      .   S
    C87    H23       1.08953      .   S
    H11    C66       1.08939      .   S
    C82    O151      1.28244      .   S
    C67    C66       1.38965      .   S
    C67    C62       1.40418  1_655   S
    Zn3    O144      1.97391      .   S
    Zn3    O142      1.99046      .   S
    C61    C62       1.48482      .   S
    C61    O144      1.28016      .   S
    C88    H24       1.08913      .   S
    C66    C65       1.40300      .   S
    C62    C63       1.40517      .   S
    O151   Zn32      1.99617      .   S
    H15    C73       1.08852      .   S
    H5     C56       1.08791      .   S
    O142   C54       1.27935      .   S
    H6     C57       1.08771      .   S
    C56    C57       1.38495      .   S
    C56    C55       1.40374      .   S
    C57    C58       1.40587      .   S
    C65    N138      1.42545      .   S
    C65    C64       1.40394      .   S
    H16    C74       1.08958      .   S
    C54    C55       1.48524      .   S
    C54    O143      1.28157      .   S
    C55    C60       1.40520      .   S
    C73    C74       1.39043      .   S
    C73    C72       1.40834      .   S
    C63    C64       1.38973  1_455   S
    C63    H9        1.08834      .   S
    C58    N138      1.41765      .   S
    C58    C59       1.40823      .   S
    O143   Zn32      1.98370      .   S
    N138   C72       1.41486      .   S
    C74    C69       1.40324      .   S
    C60    C59       1.39114      .   S
    C60    H8        1.08951      .   S
    C59    H7        1.08964      .   S
    C64    H10       1.08967      .   S
    C72    C71       1.40813      .   S
    Zn32   O147      1.96516  1_565   S
    O147   C68       1.28013      .   S
    C69    C68       1.48181      .   S
    C69    C70       1.40521      .   S
    C68    O146      1.27985      .   S
    C71    C70       1.38648      .   S
