# CIF file generated by openbabel 2.4.90, see http://openbabel.sf.net
data_I
_chemical_name_common ''
_cell_length_a 14.828
_cell_length_b 14.816
_cell_length_c 16.775
_cell_angle_alpha 102.675
_cell_angle_beta 102.684
_cell_angle_gamma 115.839
_space_group_name_H-M_alt 'P 1'
_space_group_name_Hall 'P 1'
loop_
    _symmetry_equiv_pos_as_xyz
    x,y,z
loop_
    _atom_site_label
    _atom_site_type_symbol
    _atom_site_fract_x
    _atom_site_fract_y
    _atom_site_fract_z
    _atom_site_occupancy
    Zn0     Zn   0.07463   0.47341   0.57820   1.000
    Zn1     Zn   0.47409   0.07509   0.07879   1.000
    Zn2     Zn   0.92537   0.52661   0.42178   1.000
    Zn3     Zn   0.32889   0.67073   0.74980   1.000
    Zn4     Zn   0.67111   0.32929   0.25011   1.000
    Zn5     Zn   0.52590   0.92493   0.92119   1.000
    C6      C    0.55318   0.74747   0.86776   1.000
    C7      C    0.12774   0.61287   0.75530   1.000
    C8      C    0.60183   0.14746   0.96563   1.000
    C9      C    0.25205   0.44632   0.63151   1.000
    C10     C    0.38681   0.87208   0.74440   1.000
    C11     C    0.85266   0.39819   0.53443   1.000
    C12     C    0.44682   0.25256   0.13222   1.000
    C13     C    0.87226   0.38716   0.24468   1.000
    C14     C    0.39817   0.85256   0.03436   1.000
    C15     C    0.74795   0.55371   0.36848   1.000
    C16     C    0.61318   0.12794   0.25550   1.000
    C17     C    0.14734   0.60183   0.46555   1.000
    O18     O    0.45121   0.68772   0.84248   1.000
    O19     O    0.60272   0.84982   0.88920   1.000
    O20     O    0.21979   0.63672   0.80534   1.000
    O21     O    0.10608   0.60195   0.67420   1.000
    O22     O    0.52581   0.13551   0.99443   1.000
    O23     O    0.62782   0.07620   0.94459   1.000
    O24     O    0.31155   0.54841   0.65690   1.000
    O25     O    0.14976   0.39651   0.60997   1.000
    O26     O    0.36300   0.77997   0.69440   1.000
    O27     O    0.39745   0.89366   0.82540   1.000
    O28     O    0.86501   0.47467   0.50606   1.000
    O29     O    0.92352   0.37165   0.55507   1.000
    O30     O    0.54879   0.31230   0.15750   1.000
    O31     O    0.39727   0.15020   0.11078   1.000
    O32     O    0.78021   0.36331   0.19464   1.000
    O33     O    0.89391   0.39807   0.32573   1.000
    O34     O    0.47419   0.86451   0.00555   1.000
    O35     O    0.37218   0.92382   0.05540   1.000
    O36     O    0.68845   0.45162   0.34300   1.000
    O37     O    0.85024   0.60351   0.39001   1.000
    O38     O    0.63699   0.22006   0.30559   1.000
    O39     O    0.60255   0.10636   0.17459   1.000
    O40     O    0.13499   0.52536   0.49393   1.000
    O41     O    0.07648   0.62838   0.44492   1.000
loop_
    _geom_bond_atom_site_label_1
    _geom_bond_atom_site_label_2
    _geom_bond_distance
    _geom_bond_site_symmetry_2
    _ccdc_geom_bond_type
    O34    C14       1.27995      .   S
    O34    Zn5       1.95610  1_554   S
    C14    O35       1.28011      .   S
    O35    Zn1       1.96520  1_565   S
    Zn1    O31       1.98372      .   S
    Zn1    O39       1.99627      .   S
    Zn1    O22       1.95610  1_554   S
    O31    C12       1.28157      .   S
    C12    O30       1.27935      .   S
    O30    Zn4       1.98981      .   S
    O39    C16       1.28100      .   S
    O32    C13       1.28016      .   S
    O32    Zn4       1.97307      .   S
    C13    O33       1.28232      .   S
    Zn4    O38       1.97368      .   S
    Zn4    O36       1.98930      .   S
    C16    O38       1.28047      .   S
    O33    Zn2       1.99741      .   S
    O36    C15       1.27920      .   S
    C15    O37       1.28160      .   S
    O37    Zn2       1.98369      .   S
    Zn2    O41       1.96493  1_655   S
    Zn2    O28       1.95572      .   S
    O41    C17       1.28014      .   S
    C17    O40       1.27994      .   S
    O40    Zn0       1.95556      .   S
    O28    C11       1.27984      .   S
    C11    O29       1.28015      .   S
    O29    Zn0       1.96496  1_655   S
    Zn0    O25       1.98370      .   S
    Zn0    O21       1.99695      .   S
    O25    C9        1.28158      .   S
    C9     O24       1.27932      .   S
    O24    Zn3       1.98939      .   S
    O21    C7        1.28314      .   S
    O26    C10       1.27993      .   S
    O26    Zn3       1.97274      .   S
    C10    O27       1.28244      .   S
    Zn3    O20       1.97391      .   S
    Zn3    O18       1.99046      .   S
    C7     O20       1.28016      .   S
    O27    Zn5       1.99617      .   S
    O18    C6        1.27935      .   S
    C6     O19       1.28157      .   S
    O19    Zn5       1.98370      .   S
    Zn5    O23       1.96516  1_565   S
    O23    C8        1.28013      .   S
    C8     O22       1.27985      .   S
