# CIF file generated by openbabel 2.4.90, see http://openbabel.sf.net
data_I
_chemical_name_common ''
_cell_length_a 14.828
_cell_length_b 14.816
_cell_length_c 16.775
_cell_angle_alpha 102.675
_cell_angle_beta 102.684
_cell_angle_gamma 115.839
_space_group_name_H-M_alt 'P 1'
_space_group_name_Hall 'P 1'
loop_
    _symmetry_equiv_pos_as_xyz
    x,y,z
loop_
    _atom_site_label
    _atom_site_type_symbol
    _atom_site_fract_x
    _atom_site_fract_y
    _atom_site_fract_z
    _atom_site_occupancy
    C0      C    0.55318   0.74747   0.86776   1.000
    C1      C    0.12774   0.61287   0.75530   1.000
    C2      C    0.60183   0.14746   0.96563   1.000
    C3      C    0.25205   0.44632   0.63151   1.000
    C4      C    0.38681   0.87208   0.74440   1.000
    C5      C    0.85266   0.39819   0.53443   1.000
    C6      C    0.44682   0.25256   0.13222   1.000
    C7      C    0.87226   0.38716   0.24468   1.000
    C8      C    0.39817   0.85256   0.03436   1.000
    C9      C    0.74795   0.55371   0.36848   1.000
    C10     C    0.61318   0.12794   0.25550   1.000
    C11     C    0.14734   0.60183   0.46555   1.000
    O12     O    0.45121   0.68772   0.84248   1.000
    O13     O    0.60272   0.84982   0.88920   1.000
    O14     O    0.21979   0.63672   0.80534   1.000
    O15     O    0.10608   0.60195   0.67420   1.000
    O16     O    0.52581   0.13551   0.99443   1.000
    O17     O    0.62782   0.07620   0.94459   1.000
    O18     O    0.31155   0.54841   0.65690   1.000
    O19     O    0.14976   0.39651   0.60997   1.000
    O20     O    0.36300   0.77997   0.69440   1.000
    O21     O    0.39745   0.89366   0.82540   1.000
    O22     O    0.86501   0.47467   0.50606   1.000
    O23     O    0.92352   0.37165   0.55507   1.000
    O24     O    0.54879   0.31230   0.15750   1.000
    O25     O    0.39727   0.15020   0.11078   1.000
    O26     O    0.78021   0.36331   0.19464   1.000
    O27     O    0.89391   0.39807   0.32573   1.000
    O28     O    0.47419   0.86451   0.00555   1.000
    O29     O    0.37218   0.92382   0.05540   1.000
    O30     O    0.68845   0.45162   0.34300   1.000
    O31     O    0.85024   0.60351   0.39001   1.000
    O32     O    0.63699   0.22006   0.30559   1.000
    O33     O    0.60255   0.10636   0.17459   1.000
    O34     O    0.13499   0.52536   0.49393   1.000
    O35     O    0.07648   0.62838   0.44492   1.000
loop_
    _geom_bond_atom_site_label_1
    _geom_bond_atom_site_label_2
    _geom_bond_distance
    _geom_bond_site_symmetry_2
    _ccdc_geom_bond_type
    O28    C8        1.27995      .   S
    C8     O29       1.28011      .   S
    O25    C6        1.28157      .   S
    C6     O24       1.27935      .   S
    O33    C10       1.28100      .   S
    O26    C7        1.28016      .   S
    C7     O27       1.28232      .   S
    C10    O32       1.28047      .   S
    O30    C9        1.27920      .   S
    C9     O31       1.28160      .   S
    O35    C11       1.28014      .   S
    C11    O34       1.27994      .   S
    O22    C5        1.27984      .   S
    C5     O23       1.28015      .   S
    O19    C3        1.28158      .   S
    C3     O18       1.27932      .   S
    O15    C1        1.28314      .   S
    O20    C4        1.27993      .   S
    C4     O21       1.28244      .   S
    C1     O14       1.28016      .   S
    O12    C0        1.27935      .   S
    C0     O13       1.28157      .   S
    O17    C2        1.28013      .   S
    C2     O16       1.27985      .   S
