# CIF file generated by openbabel 2.4.90, see http://openbabel.sf.net
data_I
_chemical_name_common ''
_cell_length_a 14.53
_cell_length_b 15.861
_cell_length_c 16.411
_cell_angle_alpha 89.999
_cell_angle_beta 89.998
_cell_angle_gamma 89.999
_space_group_name_H-M_alt 'P 1'
_space_group_name_Hall 'P 1'
loop_
    _symmetry_equiv_pos_as_xyz
    x,y,z
loop_
    _atom_site_label
    _atom_site_type_symbol
    _atom_site_fract_x
    _atom_site_fract_y
    _atom_site_fract_z
    _atom_site_occupancy
    H0      H    0.45047   0.08025   0.02031   1.000
    H1      H    0.27948   0.25841   0.30307   1.000
    H2      H    0.62819   0.27815   0.17766   1.000
    H3      H    0.04958   0.91949   0.52028   1.000
    H4      H    0.22038   0.74152   0.80324   1.000
    H5      H    0.87177   0.72179   0.67769   1.000
    H6      H    0.54957   0.58026   0.47967   1.000
    H7      H    0.72056   0.75840   0.19693   1.000
    H8      H    0.37184   0.77815   0.32232   1.000
    H9      H    0.95046   0.41946   0.97969   1.000
    H10     H    0.77968   0.24154   0.69672   1.000
    H11     H    0.12830   0.22179   0.82227   1.000
    H12     H    0.54959   0.91971   0.97966   1.000
    H13     H    0.72056   0.74158   0.69690   1.000
    H14     H    0.37185   0.72184   0.82231   1.000
    H15     H    0.95045   0.08055   0.47970   1.000
    H16     H    0.77966   0.25850   0.19674   1.000
    H17     H    0.12827   0.27821   0.32228   1.000
    H18     H    0.45046   0.41970   0.52030   1.000
    H19     H    0.27949   0.24159   0.80306   1.000
    H20     H    0.62820   0.22184   0.67765   1.000
    H21     H    0.04960   0.58059   0.02020   1.000
    H22     H    0.22036   0.75847   0.30328   1.000
    H23     H    0.87175   0.77821   0.17770   1.000
    C24     C    0.17300   0.99917   0.12066   1.000
    C25     C    0.24425   0.01604   0.05792   1.000
    C26     C    0.38055   0.05618   0.01829   1.000
    C27     C    0.25095   0.00000   0.97279   1.000
    C28     C    0.19065   0.97060   0.90791   1.000
    C29     C    0.34847   0.26419   0.27883   1.000
    C30     C    0.47848   0.23167   0.22183   1.000
    C31     C    0.55431   0.38038   0.23753   1.000
    C32     C    0.48059   0.31690   0.24432   1.000
    C33     C    0.54834   0.17771   0.18442   1.000
    C34     C    0.32698   0.00075   0.62063   1.000
    C35     C    0.25576   0.98378   0.55790   1.000
    C36     C    0.11948   0.94359   0.51826   1.000
    C37     C    0.24906   0.99471   0.47280   1.000
    C38     C    0.30934   0.02931   0.40792   1.000
    C39     C    0.15141   0.73574   0.77896   1.000
    C40     C    0.02143   0.76827   0.72191   1.000
    C41     C    0.94564   0.61956   0.73758   1.000
    C42     C    0.01932   0.68304   0.74438   1.000
    C43     C    0.95164   0.82222   0.68444   1.000
    C44     C    0.82704   0.49917   0.37932   1.000
    C45     C    0.75578   0.51604   0.44206   1.000
    C46     C    0.61949   0.55619   0.48100   1.000
    C47     C    0.74910   0.50516   0.52717   1.000
    C48     C    0.80940   0.47060   0.59205   1.000
    C49     C    0.65158   0.76419   0.22117   1.000
    C50     C    0.52155   0.73167   0.27816   1.000
    C51     C    0.44573   0.88038   0.26245   1.000
    C52     C    0.51945   0.81690   0.25567   1.000
    C53     C    0.45169   0.67770   0.31556   1.000
    C54     C    0.67306   0.50074   0.87933   1.000
    C55     C    0.74429   0.48377   0.94206   1.000
    C56     C    0.88056   0.44357   0.98170   1.000
    C57     C    0.75098   0.49469   0.02718   1.000
    C58     C    0.69070   0.52930   0.09205   1.000
    C59     C    0.84864   0.23576   0.72100   1.000
    C60     C    0.97863   0.26827   0.77805   1.000
    C61     C    0.05441   0.11955   0.76238   1.000
    C62     C    0.98073   0.18304   0.75559   1.000
    C63     C    0.04842   0.32222   0.81552   1.000
    C64     C    0.82705   0.00082   0.87931   1.000
    C65     C    0.75580   0.98395   0.94205   1.000
    C66     C    0.61951   0.94378   0.98169   1.000
    C67     C    0.74909   0.99483   0.02718   1.000
    C68     C    0.80939   0.02940   0.09206   1.000
    C69     C    0.65158   0.73579   0.72114   1.000
    C70     C    0.52156   0.76832   0.77814   1.000
    C71     C    0.44573   0.61961   0.76244   1.000
    C72     C    0.51945   0.68309   0.75565   1.000
    C73     C    0.45170   0.82228   0.81555   1.000
    C74     C    0.67306   0.99925   0.37934   1.000
    C75     C    0.74428   0.01623   0.44207   1.000
    C76     C    0.88055   0.05644   0.48171   1.000
    C77     C    0.75098   0.00000   0.52718   1.000
    C78     C    0.69070   0.97070   0.59205   1.000
    C79     C    0.84862   0.26427   0.22101   1.000
    O80     O    0.60594   0.95250   0.58264   1.000
    O81     O    0.12895   0.36207   0.29908   1.000
    O82     O    0.03114   0.10088   0.32641   1.000
    O83     O    0.12720   0.21120   0.33687   1.000
    C84     C    0.97861   0.23174   0.27806   1.000
    C85     C    0.05440   0.38045   0.26239   1.000
    C86     C    0.98072   0.31697   0.25559   1.000
    C87     C    0.04840   0.17778   0.31553   1.000
    C88     C    0.17300   0.50082   0.62065   1.000
    C89     C    0.24426   0.48395   0.55792   1.000
    C90     C    0.38055   0.44378   0.51828   1.000
    C91     C    0.25094   0.49483   0.47280   1.000
    C92     C    0.19065   0.52939   0.40790   1.000
    C93     C    0.34847   0.23580   0.77882   1.000
    C94     C    0.47849   0.26832   0.72182   1.000
    C95     C    0.55432   0.11961   0.73752   1.000
    C96     C    0.48059   0.18309   0.74431   1.000
    C97     C    0.54835   0.32229   0.68442   1.000
    C98     C    0.32699   0.49926   0.12065   1.000
    C99     C    0.25576   0.51624   0.05792   1.000
    C100    C    0.11950   0.55647   0.01827   1.000
    C101    C    0.24907   0.50533   0.97279   1.000
    C102    C    0.30934   0.47070   0.90792   1.000
    C103    C    0.15139   0.76425   0.27899   1.000
    C104    C    0.02141   0.73173   0.22193   1.000
    C105    C    0.94563   0.88045   0.23759   1.000
    C106    C    0.01931   0.81697   0.24439   1.000
    C107    C    0.95163   0.67778   0.18445   1.000
    N108    N    0.32739   0.04784   0.08479   1.000
    N109    N    0.33799   0.03119   0.94968   1.000
    N110    N    0.39424   0.19942   0.24450   1.000
    N111    N    0.39796   0.33623   0.28012   1.000
    N112    N    0.17265   0.95192   0.58477   1.000
    N113    N    0.16203   0.96865   0.44969   1.000
    N114    N    0.10566   0.80052   0.74466   1.000
    N115    N    0.10192   0.66371   0.78022   1.000
    N116    N    0.67265   0.54785   0.41519   1.000
    N117    N    0.66205   0.53119   0.55028   1.000
    N118    N    0.60580   0.69941   0.25544   1.000
    N119    N    0.60209   0.83622   0.21988   1.000
    N120    N    0.82740   0.45190   0.91519   1.000
    N121    N    0.83801   0.46863   0.05000   1.000
    N122    N    0.89440   0.30053   0.75530   1.000
    N123    N    0.89813   0.16372   0.71974   1.000
    N124    N    0.67266   0.95213   0.91518   1.000
    N125    N    0.66206   0.96879   0.05029   1.000
    N126    N    0.60580   0.80057   0.75542   1.000
    N127    N    0.60208   0.66376   0.71985   1.000
    N128    N    0.82739   0.04811   0.41520   1.000
    N129    N    0.83801   0.03138   0.55029   1.000
    N130    N    0.89438   0.19949   0.25530   1.000
    N131    N    0.89812   0.33630   0.21975   1.000
    N132    N    0.32739   0.45213   0.58479   1.000
    N133    N    0.33799   0.46879   0.44970   1.000
    N134    N    0.39425   0.30058   0.74455   1.000
    N135    N    0.39796   0.16376   0.78010   1.000
    N136    N    0.17265   0.54813   0.08478   1.000
    N137    N    0.16204   0.53140   0.94968   1.000
    N138    N    0.10564   0.69948   0.24469   1.000
    N139    N    0.10191   0.83628   0.28020   1.000
    O140    O    0.19890   0.01091   0.19443   1.000
    O141    O    0.09182   0.97436   0.10414   1.000
    O142    O    0.22948   0.95867   0.83887   1.000
    O143    O    0.10589   0.95241   0.91730   1.000
    O144    O    0.62889   0.36199   0.20088   1.000
    O145    O    0.53113   0.10079   0.17358   1.000
    O146    O    0.62713   0.21114   0.16307   1.000
    O147    O    0.53894   0.45202   0.27098   1.000
    O148    O    0.30108   0.98905   0.69441   1.000
    O149    O    0.40814   0.02562   0.60410   1.000
    O150    O    0.27051   0.04127   0.33889   1.000
    O151    O    0.39410   0.04750   0.41733   1.000
    O152    O    0.87109   0.63793   0.70089   1.000
    O153    O    0.96889   0.89913   0.67356   1.000
    O154    O    0.87284   0.78881   0.66310   1.000
    O155    O    0.96107   0.54790   0.77098   1.000
    O156    O    0.80113   0.51091   0.30555   1.000
    O157    O    0.90823   0.47437   0.39584   1.000
    O158    O    0.77057   0.45867   0.66109   1.000
    O159    O    0.89416   0.45241   0.58264   1.000
    O160    O    0.37115   0.86199   0.29910   1.000
    O161    O    0.46891   0.60079   0.32640   1.000
    O162    O    0.37290   0.71114   0.33691   1.000
    O163    O    0.46111   0.95202   0.22900   1.000
    O164    O    0.69897   0.48905   0.80555   1.000
    O165    O    0.59190   0.52561   0.89585   1.000
    O166    O    0.72953   0.54126   0.16100   1.000
    O167    O    0.60593   0.54750   0.08260   1.000
    O168    O    0.12896   0.13793   0.79907   1.000
    O169    O    0.03117   0.39913   0.82641   1.000
    O170    O    0.12723   0.28880   0.83686   1.000
    O171    O    0.03898   0.04790   0.72899   1.000
    O172    O    0.80114   0.98909   0.80554   1.000
    O173    O    0.90823   0.02564   0.89583   1.000
    O174    O    0.77056   0.04132   0.16110   1.000
    O175    O    0.89415   0.04758   0.08264   1.000
    O176    O    0.37115   0.63801   0.79909   1.000
    O177    O    0.46892   0.89920   0.82639   1.000
    O178    O    0.37291   0.78885   0.83690   1.000
    O179    O    0.46110   0.54797   0.72899   1.000
    O180    O    0.69897   0.01095   0.30556   1.000
    O181    O    0.59190   0.97438   0.39587   1.000
    O182    O    0.72954   0.95873   0.66108   1.000
    O183    O    0.03898   0.45211   0.22899   1.000
    O184    O    0.19891   0.48909   0.69442   1.000
    O185    O    0.09182   0.52563   0.60413   1.000
    O186    O    0.22948   0.54132   0.33880   1.000
    O187    O    0.10589   0.54758   0.41734   1.000
    O188    O    0.62890   0.13800   0.70087   1.000
    O189    O    0.53113   0.39920   0.67357   1.000
    O190    O    0.62714   0.28885   0.66306   1.000
    O191    O    0.53894   0.04797   0.77097   1.000
    O192    O    0.30107   0.51094   0.19442   1.000
    O193    O    0.40814   0.47439   0.10412   1.000
    O194    O    0.27051   0.45874   0.83889   1.000
    O195    O    0.39410   0.45250   0.91733   1.000
    O196    O    0.87108   0.86208   0.20090   1.000
    O197    O    0.96889   0.60088   0.17357   1.000
    O198    O    0.87282   0.71120   0.16311   1.000
    O199    O    0.96106   0.95211   0.27099   1.000
loop_
    _geom_bond_atom_site_label_1
    _geom_bond_atom_site_label_2
    _geom_bond_distance
    _geom_bond_site_symmetry_2
    _ccdc_geom_bond_type
    C100   H21       1.08573      .   S
    C100   N136      1.34367      .   S
    C100   N137      1.34431  1_554   S
    C26    H0        1.08576      .   S
    C26    N108      1.34353      .   S
    C26    N109      1.34437  1_554   S
    C57    N121      1.38216      .   S
    C57    C58       1.48388      .   S
    C57    C55       1.41096  1_554   S
    C67    N125      1.38340      .   S
    C67    C68       1.48390  1_565   S
    C67    C65       1.41105  1_554   S
    N121   C56       1.34032  1_554   S
    N125   C66       1.34425  1_554   S
    C25    N108      1.38137      .   S
    C25    C24       1.48442  1_545   S
    C25    C27       1.42336  1_554   S
    C99    N136      1.38136      .   S
    C99    C98       1.48439      .   S
    C99    C101      1.41112  1_554   S
    O167   C58       1.27441      .   S
    O175   C68       1.27430      .   S
    C58    O166      1.27860      .   S
    C68    O174      1.27979      .   S
    O193   C98       1.27268      .   S
    O141   C24       1.27272      .   S
    C98    O192      1.28132      .   S
    C24    O140      1.28143  1_565   S
    O146   H2        1.08963      .   S
    O146   C33       1.30937      .   S
    O198   H23       1.08964      .   S
    O198   C107      1.30944      .   S
    O197   C107      1.25803      .   S
    O145   C33       1.25802      .   S
    C33    C30       1.46279      .   S
    C107   C104      1.46244  1_655   S
    H16    C79       1.08226      .   S
    H7     C49       1.08230      .   S
    O144   C31       1.27317      .   S
    O196   C105      1.27313      .   S
    N131   C79       1.35010      .   S
    N131   C86       1.37127      .   S
    N119   C49       1.35014      .   S
    N119   C52       1.37133      .   S
    C79    N130      1.34693      .   S
    C49    N118      1.34697      .   S
    C30    C32       1.40164      .   S
    C30    N110      1.37778      .   S
    C104   C106      1.40158      .   S
    C104   N138      1.37805      .   S
    O183   C85       1.28158      .   S
    O163   C51       1.28158      .   S
    C31    C32       1.47439      .   S
    C31    O147      1.28161      .   S
    C105   C106      1.47396  1_655   S
    C105   O199      1.28162      .   S
    C32    N111      1.37135      .   S
    C106   N139      1.37097      .   S
    N110   C29       1.34735      .   S
    N138   C103      1.34697      .   S
    N130   C84       1.37809      .   S
    N118   C50       1.37803      .   S
    C86    C85       1.47398  1_655   S
    C86    C84       1.40160      .   S
    C52    C51       1.47438      .   S
    C52    C50       1.40165      .   S
    C85    O81       1.27315      .   S
    C51    O160      1.27321      .   S
    C84    C87       1.46243  1_655   S
    C50    C53       1.46277      .   S
    C29    N111      1.35015      .   S
    C29    H1        1.08226      .   S
    C103   N139      1.35009      .   S
    C103   H22       1.08233      .   S
    O156   C44       1.28144      .   S
    O180   C74       1.28146  1_545   S
    C87    O82       1.25804      .   S
    C87    O83       1.30942      .   S
    C53    O161      1.25802      .   S
    C53    O162      1.30937      .   S
    H17    O83       1.08968      .   S
    H8     O162      1.08965      .   S
    O186   C92       1.28065      .   S
    O150   C38       1.27976      .   S
    C44    O157      1.27271      .   S
    C44    C45       1.48447      .   S
    C74    O181      1.27268      .   S
    C74    C75       1.48433  1_565   S
    C92    O187      1.27436      .   S
    C92    C91       1.48410      .   S
    C38    O151      1.27432      .   S
    C38    C37       1.48395  1_545   S
    N116   C45       1.38138      .   S
    N116   C46       1.33434      .   S
    N128   C75       1.38140      .   S
    N128   C76       1.34368      .   S
    C45    C47       1.41070      .   S
    C75    C77       1.42361      .   S
    N113   C37       1.38339      .   S
    N113   C36       1.34399      .   S
    N133   C91       1.38344      .   S
    N133   C90       1.34400      .   S
    C91    C89       1.41087      .   S
    C37    C35       1.41065      .   S
    H6     C46       1.08547      .   S
    H15    C76       1.08576      .   S
    C46    N117      1.35363      .   S
    C76    N129      1.34414      .   S
    C36    H3        1.08576      .   S
    C36    N112      1.34370      .   S
    C90    H18       1.08575      .   S
    C90    N132      1.34365      .   S
    C47    N117      1.38349      .   S
    C47    C48       1.48384      .   S
    C77    N129      1.41083      .   S
    C77    C78       1.45483  1_545   S
    C35    N112      1.38139      .   S
    C35    C34       1.48435  1_565   S
    C89    N132      1.38137      .   S
    C89    C88       1.48436      .   S
    O80    C78       1.27431      .   S
    O159   C48       1.27429      .   S
    C78    O182      1.27979      .   S
    C48    O158      1.27975      .   S
    O149   C34       1.27269      .   S
    O185   C88       1.27271      .   S
    C34    O148      1.28146  1_545   S
    C88    O184      1.28143      .   S
    O190   H20       1.08963      .   S
    O190   C97       1.30942      .   S
    O154   H5        1.08965      .   S
    O154   C43       1.30943      .   S
    O153   C43       1.25804      .   S
    O189   C97       1.25803      .   S
    C97    C94       1.46273      .   S
    C43    C40       1.46243  1_655   S
    H10    C59       1.08230      .   S
    H13    C69       1.08227      .   S
    O188   C95       1.27320      .   S
    O152   C41       1.27314      .   S
    N123   C59       1.35011      .   S
    N123   C62       1.37132      .   S
    N127   C69       1.35015      .   S
    N127   C72       1.37135      .   S
    C59    N122      1.34699      .   S
    C69    N126      1.34700      .   S
    C94    C96       1.40164      .   S
    C94    N134      1.37805      .   S
    C40    C42       1.40160      .   S
    C40    N114      1.37805      .   S
    O171   C61       1.28154      .   S
    O179   C71       1.28161      .   S
    C95    C96       1.47439      .   S
    C95    O191      1.28159      .   S
    C41    C42       1.47398  1_655   S
    C41    O155      1.28158      .   S
    C96    N135      1.37130      .   S
    C42    N115      1.37126      .   S
    N134   C93       1.34697      .   S
    N114   C39       1.34699      .   S
    N122   C60       1.37804      .   S
    N126   C70       1.37801      .   S
    C62    C61       1.47396  1_655   S
    C62    C60       1.40158      .   S
    C72    C71       1.47440      .   S
    C72    C70       1.40164      .   S
    C61    O168      1.27315      .   S
    C71    O176      1.27316      .   S
    C60    C63       1.46241  1_655   S
    C70    C73       1.46280      .   S
    C93    N135      1.35014      .   S
    C93    H19       1.08226      .   S
    C39    N115      1.35010      .   S
    C39    H4        1.08232      .   S
    O172   C64       1.28142  1_565   S
    O164   C54       1.28149      .   S
    C63    O169      1.25805      .   S
    C63    O170      1.30948      .   S
    C73    O177      1.25802      .   S
    C73    O178      1.30937      .   S
    H11    O170      1.08964      .   S
    H14    O178      1.08964      .   S
    O142   C28       1.27976      .   S
    O194   C102      1.27980      .   S
    C64    O173      1.27273      .   S
    C64    C65       1.48440  1_545   S
    C54    O165      1.27266      .   S
    C54    C55       1.48439      .   S
    C28    O143      1.27426      .   S
    C28    C27       1.45564  1_565   S
    C102   O195      1.27430      .   S
    C102   C101      1.48391      .   S
    N124   C65       1.38139      .   S
    N124   C66       1.34364      .   S
    N120   C55       1.38141      .   S
    N120   C56       1.34369      .   S
    N109   C27       1.40997      .   S
    N137   C101      1.38345      .   S
    H12    C66       1.08576      .   S
    H9     C56       1.08575      .   S
