# CIF file generated by openbabel 2.4.90, see http://openbabel.sf.net
data_I
_chemical_name_common ''
_cell_length_a 14.53
_cell_length_b 15.861
_cell_length_c 16.411
_cell_angle_alpha 89.999
_cell_angle_beta 89.998
_cell_angle_gamma 89.999
_space_group_name_H-M_alt 'P 1'
_space_group_name_Hall 'P 1'
loop_
    _symmetry_equiv_pos_as_xyz
    x,y,z
loop_
    _atom_site_label
    _atom_site_type_symbol
    _atom_site_fract_x
    _atom_site_fract_y
    _atom_site_fract_z
    _atom_site_occupancy
    Zr0     Zr   0.35773   0.06152   0.22199   1.000
    Zr1     Zr   0.12228   0.97642   0.31419   1.000
    Zr2     Zr   0.14229   0.93835   0.72198   1.000
    Zr3     Zr   0.37768   0.02362   0.81415   1.000
    Zr4     Zr   0.64231   0.56152   0.27799   1.000
    Zr5     Zr   0.87777   0.47643   0.18579   1.000
    Zr6     Zr   0.85776   0.43836   0.77798   1.000
    Zr7     Zr   0.62236   0.52362   0.68581   1.000
    Zr8     Zr   0.64232   0.93846   0.77798   1.000
    Zr9     Zr   0.87776   0.02359   0.68579   1.000
    Zr10    Zr   0.85775   0.06166   0.27799   1.000
    Zr11    Zr   0.62237   0.97637   0.18582   1.000
    Zr12    Zr   0.35773   0.43847   0.72199   1.000
    Zr13    Zr   0.12228   0.52358   0.81418   1.000
    Zr14    Zr   0.14229   0.56165   0.22199   1.000
    Zr15    Zr   0.37767   0.47637   0.31417   1.000
    Zr16    Zr   0.00000   0.00000   0.00000   1.000
    Zr17    Zr   0.50002   0.00000   0.49990   1.000
    Zr18    Zr   0.00001   0.50000   0.49999   1.000
    Zr19    Zr   0.50002   0.50000   0.00000   1.000
    N20     N    0.74848   0.49129   0.98435   1.000
    O21     O    0.70458   0.49881   0.86502   1.000
    O22     O    0.71720   0.52134   0.10192   1.000
    N23     N    0.50495   0.77454   0.27069   1.000
    O24     O    0.46412   0.65656   0.29549   1.000
    O25     O    0.56450   0.70250   0.26870   1.000
    O26     O    0.45718   0.89065   0.24809   1.000
    N27     N    0.75160   0.50857   0.48432   1.000
    O28     O    0.79552   0.50112   0.36500   1.000
    O29     O    0.78288   0.47854   0.60193   1.000
    N30     N    0.24845   0.00813   0.01559   1.000
    O31     O    0.20452   0.00090   0.13495   1.000
    O32     O    0.21717   0.97832   0.89801   1.000
    N33     N    0.00485   0.72540   0.72935   1.000
    O34     O    0.96409   0.84338   0.70451   1.000
    O35     O    0.06441   0.79742   0.73134   1.000
    O36     O    0.95713   0.60926   0.75192   1.000
    N37     N    0.50495   0.72545   0.77067   1.000
    O38     O    0.46413   0.84343   0.79547   1.000
    O39     O    0.56451   0.79748   0.76869   1.000
    O40     O    0.45719   0.60934   0.74808   1.000
    N41     N    0.99519   0.27461   0.27062   1.000
    O42     O    0.04291   0.39074   0.24805   1.000
    O43     O    0.03595   0.15663   0.29546   1.000
    O44     O    0.93562   0.20259   0.26863   1.000
    N45     N    0.49509   0.22545   0.72929   1.000
    O46     O    0.54286   0.10934   0.75188   1.000
    O47     O    0.43554   0.29749   0.73128   1.000
    O48     O    0.53592   0.34343   0.70449   1.000
    N49     N    0.00484   0.77461   0.22937   1.000
    O50     O    0.95712   0.89074   0.25193   1.000
    O51     O    0.96408   0.65663   0.20452   1.000
    O52     O    0.06440   0.70258   0.23135   1.000
    N53     N    0.74848   0.00827   0.48439   1.000
    O54     O    0.71720   0.97843   0.60196   1.000
    O55     O    0.70458   0.00096   0.36504   1.000
    N56     N    0.25156   0.50872   0.01558   1.000
    O57     O    0.28284   0.47866   0.89801   1.000
    O58     O    0.29547   0.50119   0.13494   1.000
    N59     N    0.25156   0.99130   0.51558   1.000
    O60     O    0.29547   0.99882   0.63493   1.000
    O61     O    0.28284   0.02135   0.39801   1.000
    N62     N    0.99521   0.22540   0.77061   1.000
    O63     O    0.93564   0.29742   0.76862   1.000
    O64     O    0.03596   0.34338   0.79545   1.000
    O65     O    0.04292   0.10926   0.74805   1.000
    N66     N    0.24844   0.49142   0.51559   1.000
    O67     O    0.21716   0.52145   0.39799   1.000
    O68     O    0.20452   0.49887   0.63494   1.000
    N69     N    0.49509   0.27454   0.22929   1.000
    O70     O    0.43554   0.20250   0.23127   1.000
    O71     O    0.53592   0.15656   0.20450   1.000
    O72     O    0.54285   0.39065   0.25189   1.000
    N73     N    0.75160   0.99142   0.98438   1.000
    O74     O    0.78288   0.02145   0.10196   1.000
    O75     O    0.79552   0.99888   0.86502   1.000
    O76     O    0.54097   0.85489   0.23791   1.000
    O77     O    0.71047   0.99106   0.06507   1.000
    O78     O    0.72060   0.97298   0.90177   1.000
    O79     O    0.85110   0.49513   0.48947   1.000
    O80     O    0.14894   0.50486   0.51047   1.000
    O81     O    0.04087   0.64504   0.76212   1.000
    O82     O    0.21042   0.50902   0.93491   1.000
    O83     O    0.22057   0.52716   0.09819   1.000
    O84     O    0.64898   0.99499   0.48948   1.000
    O85     O    0.35106   0.00479   0.51044   1.000
    O86     O    0.77947   0.02693   0.40179   1.000
    O87     O    0.54097   0.64510   0.73789   1.000
    O88     O    0.71047   0.50892   0.56503   1.000
    O89     O    0.78962   0.00879   0.56506   1.000
    O90     O    0.95918   0.14505   0.73784   1.000
    O91     O    0.28957   0.49106   0.43490   1.000
    O92     O    0.45907   0.35489   0.26208   1.000
    O93     O    0.14894   0.99491   0.01048   1.000
    O94     O    0.85110   0.00486   0.98950   1.000
    O95     O    0.27944   0.47298   0.59819   1.000
    O96     O    0.64897   0.50478   0.98948   1.000
    O97     O    0.35107   0.49522   0.01047   1.000
    O98     O    0.04086   0.85496   0.26213   1.000
    O99     O    0.21041   0.99100   0.43491   1.000
    O100    O    0.27944   0.02679   0.09820   1.000
    O101    O    0.22057   0.97286   0.59818   1.000
    O102    O    0.45908   0.14510   0.76206   1.000
    O103    O    0.28958   0.00871   0.93490   1.000
    O104    O    0.72060   0.52701   0.40175   1.000
    O105    O    0.78962   0.49099   0.06500   1.000
    O106    O    0.95917   0.35496   0.23785   1.000
    O107    O    0.77948   0.47285   0.90176   1.000
loop_
    _geom_bond_atom_site_label_1
    _geom_bond_atom_site_label_2
    _geom_bond_distance
    _geom_bond_site_symmetry_2
    _ccdc_geom_bond_type
    N20    O21       2.06317      .   S
    Zr7    O21       3.19859      .   S
    N20    O22       2.03878  1_556   S
    Zr4    O22       3.15261      .   S
    N23    O24       2.00479      .   S
    Zr15   O24       3.13682      .   S
    N23    O25       1.43358      .   S
    Zr4    O25       2.51031      .   S
    N23    O26       2.00281      .   S
    Zr0    O26       3.10105  1_545   S
    N27    O28       2.06300      .   S
    Zr5    O28       3.19848      .   S
    N27    O29       2.03924      .   S
    Zr6    O29       3.15238      .   S
    N30    O31       2.06334      .   S
    Zr1    O31       3.19857  1_565   S
    N30    O32       2.03808  1_544   S
    Zr2    O32       3.15134      .   S
    N33    O34       2.00467  1_455   S
    Zr9    O34       3.13649  1_545   S
    N33    O35       1.43352      .   S
    Zr2    O35       2.51021      .   S
    N33    O36       2.00270  1_455   S
    Zr6    O36       3.10090      .   S
    N37    O38       2.00479      .   S
    Zr3    O38       3.13685  1_545   S
    N37    O39       1.43359      .   S
    Zr8    O39       2.51033      .   S
    N37    O40       2.00279      .   S
    Zr12   O40       3.10098      .   S
    N41    O42       2.00271  1_655   S
    Zr14   O42       3.10094      .   S
    N41    O43       2.00466  1_655   S
    Zr1    O43       3.13646  1_565   S
    N41    O44       1.43351      .   S
    Zr10   O44       2.51020      .   S
    N45    O46       2.00281      .   S
    Zr8    O46       3.10108  1_565   S
    N45    O47       1.43359      .   S
    Zr12   O47       2.51033      .   S
    N45    O48       2.00477      .   S
    Zr7    O48       3.13676      .   S
    N49    O50       2.00273  1_455   S
    Zr10   O50       3.10100  1_545   S
    N49    O51       2.00460  1_455   S
    Zr5    O51       3.13633      .   S
    N49    O52       1.43352      .   S
    Zr14   O52       2.51022      .   S
    N53    O54       2.03791  1_545   S
    Zr8    O54       3.15118      .   S
    N53    O55       2.06321      .   S
    Zr11   O55       3.19840  1_565   S
    N56    O57       2.03877  1_554   S
    Zr12   O57       3.15193      .   S
    N56    O58       2.06351      .   S
    Zr15   O58       3.19901      .   S
    N59    O60       2.06340      .   S
    Zr3    O60       3.19881  1_545   S
    N59    O61       2.03872  1_565   S
    Zr0    O61       3.15188      .   S
    N62    O63       1.43352      .   S
    Zr6    O63       2.51021      .   S
    N62    O64       2.00463  1_655   S
    Zr13   O64       3.13637      .   S
    N62    O65       2.00271  1_655   S
    Zr2    O65       3.10097  1_565   S
    N66    O67       2.03909      .   S
    Zr14   O67       3.15164      .   S
    N66    O68       2.06349      .   S
    Zr13   O68       3.19897      .   S
    N69    O70       1.43358      .   S
    Zr0    O70       2.51030      .   S
    N69    O71       2.00480      .   S
    Zr11   O71       3.13689  1_565   S
    N69    O72       2.00280      .   S
    Zr4    O72       3.10098      .   S
    N73    O74       2.03891  1_566   S
    Zr10   O74       3.15207      .   S
    N73    O75       2.06348      .   S
    Zr9    O75       3.19887  1_545   S
    Zr11   O76       2.41702      .   S
    N23    O76       1.47905      .   S
    Zr11   O77       2.37061      .   S
    N73    O77       1.45281  1_556   S
    Zr8    O78       2.39189      .   S
    N73    O78       1.45813      .   S
    Zr18   O79       2.17189  1_455   S
    N27    O79       1.46381      .   S
    Zr18   O80       2.17217      .   S
    N66    O80       1.46389      .   S
    Zr13   O81       2.41675      .   S
    N33    O81       1.47895      .   S
    Zr13   O82       2.37042      .   S
    N56    O82       1.45269  1_554   S
    Zr14   O83       2.39181      .   S
    N56    O83       1.45812      .   S
    Zr17   O84       2.17254  1_545   S
    N53    O84       1.46345  1_545   S
    Zr17   O85       2.17253      .   S
    N59    O85       1.46399  1_565   S
    Zr10   O86       2.39255      .   S
    N53    O86       1.45876      .   S
    Zr7    O87       2.41698      .   S
    N37    O87       1.47904      .   S
    Zr7    O88       2.37095      .   S
    N27    O88       1.45315      .   S
    Zr9    O89       2.37077      .   S
    N53    O89       1.45269      .   S
    Zr9    O90       2.41680      .   S
    N62    O90       1.47897      .   S
    Zr15   O91       2.37028      .   S
    N66    O91       1.45278      .   S
    Zr15   O92       2.41702      .   S
    N69    O92       1.47907      .   S
    Zr16   O93       2.17236  1_545   S
    N30    O93       1.46341  1_545   S
    Zr16   O94       2.17179  1_454   S
    N73    O94       1.46374  1_565   S
    Zr12   O95       2.39191      .   S
    N66    O95       1.45815      .   S
    Zr19   O96       2.17253  1_554   S
    N20    O96       1.46401      .   S
    Zr19   O97       2.17239      .   S
    N56    O97       1.46395      .   S
    Zr1    O98       2.41686      .   S
    N49    O98       1.47896      .   S
    Zr1    O99       2.37037      .   S
    N59    O99       1.45263      .   S
    Zr0    O100      2.39270      .   S
    N30    O100      1.45883      .   S
    Zr2    O101      2.39173      .   S
    N59    O101      1.45803      .   S
    Zr3    O102      2.41701      .   S
    N45    O102      1.47905      .   S
    Zr3    O103      2.37095      .   S
    N30    O103      1.45282  1_554   S
    Zr4    O104      2.39142      .   S
    N27    O104      1.45762      .   S
    Zr5    O105      2.37133      .   S
    N20    O105      1.45228  1_556   S
    Zr5    O106      2.41676      .   S
    N41    O106      1.47895      .   S
    Zr6    O107      2.39157      .   S
    N20    O107      1.45783      .   S
