# CIF file generated by openbabel 2.4.90, see http://openbabel.sf.net
data_I
_chemical_name_common ''
_cell_length_a 14.53
_cell_length_b 15.861
_cell_length_c 16.411
_cell_angle_alpha 89.999
_cell_angle_beta 89.998
_cell_angle_gamma 89.999
_space_group_name_H-M_alt 'P 1'
_space_group_name_Hall 'P 1'
loop_
    _symmetry_equiv_pos_as_xyz
    x,y,z
loop_
    _atom_site_label
    _atom_site_type_symbol
    _atom_site_fract_x
    _atom_site_fract_y
    _atom_site_fract_z
    _atom_site_occupancy
    Zr0     Zr   0.35773   0.06152   0.22199   1.000
    Zr1     Zr   0.12228   0.97642   0.31419   1.000
    Zr2     Zr   0.14229   0.93835   0.72198   1.000
    Zr3     Zr   0.37768   0.02362   0.81415   1.000
    Zr4     Zr   0.64231   0.56152   0.27799   1.000
    Zr5     Zr   0.87777   0.47643   0.18579   1.000
    Zr6     Zr   0.85776   0.43836   0.77798   1.000
    Zr7     Zr   0.62236   0.52362   0.68581   1.000
    Zr8     Zr   0.64232   0.93846   0.77798   1.000
    Zr9     Zr   0.87776   0.02359   0.68579   1.000
    Zr10    Zr   0.85775   0.06166   0.27799   1.000
    Zr11    Zr   0.62237   0.97637   0.18582   1.000
    Zr12    Zr   0.35773   0.43847   0.72199   1.000
    Zr13    Zr   0.12228   0.52358   0.81418   1.000
    Zr14    Zr   0.14229   0.56165   0.22199   1.000
    Zr15    Zr   0.37767   0.47637   0.31417   1.000
    Zr16    Zr   0.00000   0.00000   0.00000   1.000
    Zr17    Zr   0.50002   0.00000   0.49990   1.000
    Zr18    Zr   0.00001   0.50000   0.49999   1.000
    Zr19    Zr   0.50002   0.50000   0.00000   1.000
    N20     N    0.74848   0.49129   0.98435   1.000
    O21     O    0.65073   0.50752   0.01282   1.000
    O22     O    0.80319   0.48191   0.05112   1.000
    O23     O    0.79553   0.46821   0.91547   1.000
    O24     O    0.70458   0.49881   0.86502   1.000
    O25     O    0.76342   0.47750   0.88806   1.000
    O26     O    0.71720   0.52134   0.10192   1.000
    O27     O    0.77606   0.50007   0.07887   1.000
    O28     O    0.64722   0.50205   0.96614   1.000
    N29     N    0.50495   0.77454   0.27069   1.000
    O30     O    0.46412   0.65656   0.29549   1.000
    O31     O    0.55859   0.84042   0.23677   1.000
    O32     O    0.56450   0.70250   0.26870   1.000
    O33     O    0.45718   0.89065   0.24809   1.000
    O34     O    0.52334   0.86937   0.23905   1.000
    N35     N    0.75160   0.50857   0.48432   1.000
    O36     O    0.84934   0.49239   0.51282   1.000
    O37     O    0.70454   0.53162   0.41546   1.000
    O38     O    0.69690   0.51798   0.55118   1.000
    O39     O    0.79552   0.50112   0.36500   1.000
    O40     O    0.73666   0.52239   0.38805   1.000
    O41     O    0.78288   0.47854   0.60193   1.000
    O42     O    0.72403   0.49986   0.57889   1.000
    O43     O    0.85286   0.49787   0.46612   1.000
    N44     N    0.24845   0.00813   0.01559   1.000
    O45     O    0.20452   0.00090   0.13495   1.000
    O46     O    0.26338   0.02218   0.11190   1.000
    O47     O    0.15070   0.99217   0.98712   1.000
    O48     O    0.30314   0.01777   0.94875   1.000
    O49     O    0.14718   0.99766   0.03383   1.000
    O50     O    0.21717   0.97832   0.89801   1.000
    O51     O    0.27601   0.99964   0.92105   1.000
    O52     O    0.29550   0.03141   0.08449   1.000
    N53     N    0.00485   0.72540   0.72935   1.000
    O54     O    0.96409   0.84338   0.70451   1.000
    O55     O    0.05848   0.65952   0.76328   1.000
    O56     O    0.06441   0.79742   0.73134   1.000
    O57     O    0.95713   0.60926   0.75192   1.000
    O58     O    0.02326   0.63057   0.76097   1.000
    N59     N    0.50495   0.72545   0.77067   1.000
    O60     O    0.55859   0.65957   0.73675   1.000
    O61     O    0.46413   0.84343   0.79547   1.000
    O62     O    0.56451   0.79748   0.76869   1.000
    O63     O    0.52334   0.63062   0.73904   1.000
    O64     O    0.45719   0.60934   0.74808   1.000
    N65     N    0.99519   0.27461   0.27062   1.000
    O66     O    0.04291   0.39074   0.24805   1.000
    O67     O    0.97678   0.36944   0.23900   1.000
    O68     O    0.94156   0.34049   0.23669   1.000
    O69     O    0.03595   0.15663   0.29546   1.000
    O70     O    0.93562   0.20259   0.26863   1.000
    N71     N    0.49509   0.22545   0.72929   1.000
    O72     O    0.44146   0.15957   0.76321   1.000
    O73     O    0.54286   0.10934   0.75188   1.000
    O74     O    0.47670   0.13062   0.76092   1.000
    O75     O    0.43554   0.29749   0.73128   1.000
    O76     O    0.53592   0.34343   0.70449   1.000
    N77     N    0.00484   0.77461   0.22937   1.000
    O78     O    0.95712   0.89074   0.25193   1.000
    O79     O    0.02325   0.86944   0.26098   1.000
    O80     O    0.96408   0.65663   0.20452   1.000
    O81     O    0.06440   0.70258   0.23135   1.000
    O82     O    0.05846   0.84048   0.26328   1.000
    N83     N    0.74848   0.00827   0.48439   1.000
    O84     O    0.77607   0.99971   0.57891   1.000
    O85     O    0.71720   0.97843   0.60196   1.000
    O86     O    0.80318   0.01787   0.55122   1.000
    O87     O    0.64722   0.99773   0.46614   1.000
    O88     O    0.79552   0.03157   0.41549   1.000
    O89     O    0.76342   0.02229   0.38808   1.000
    O90     O    0.70458   0.00096   0.36504   1.000
    O91     O    0.65073   0.99226   0.51283   1.000
    N92     N    0.25156   0.50872   0.01558   1.000
    O93     O    0.35282   0.49796   0.03382   1.000
    O94     O    0.34931   0.49249   0.98712   1.000
    O95     O    0.20452   0.53181   0.08448   1.000
    O96     O    0.19686   0.51811   0.94876   1.000
    O97     O    0.28284   0.47866   0.89801   1.000
    O98     O    0.22398   0.49994   0.92106   1.000
    O99     O    0.29547   0.50119   0.13494   1.000
    O100    O    0.23662   0.52251   0.11189   1.000
    N101    N    0.25156   0.99130   0.51558   1.000
    O102    O    0.29547   0.99882   0.63493   1.000
    O103    O    0.23662   0.97750   0.61189   1.000
    O104    O    0.28284   0.02135   0.39801   1.000
    O105    O    0.22397   0.00007   0.42106   1.000
    O106    O    0.19685   0.98192   0.44876   1.000
    O107    O    0.35282   0.00206   0.53379   1.000
    O108    O    0.34931   0.00753   0.48710   1.000
    O109    O    0.20451   0.96822   0.58448   1.000
    N110    N    0.99521   0.22540   0.77061   1.000
    O111    O    0.93564   0.29742   0.76862   1.000
    O112    O    0.03596   0.34338   0.79545   1.000
    O113    O    0.94158   0.15953   0.73669   1.000
    O114    O    0.04292   0.10926   0.74805   1.000
    O115    O    0.97679   0.13057   0.73900   1.000
    N116    N    0.24844   0.49142   0.51559   1.000
    O117    O    0.15070   0.50760   0.48713   1.000
    O118    O    0.14718   0.50212   0.53382   1.000
    O119    O    0.30314   0.48200   0.44876   1.000
    O120    O    0.21716   0.52145   0.39799   1.000
    O121    O    0.27601   0.50013   0.42104   1.000
    O122    O    0.29550   0.46836   0.58449   1.000
    O123    O    0.20452   0.49887   0.63494   1.000
    O124    O    0.26338   0.47760   0.61190   1.000
    N125    N    0.49509   0.27454   0.22929   1.000
    O126    O    0.44145   0.34042   0.26322   1.000
    O127    O    0.43554   0.20250   0.23127   1.000
    O128    O    0.53592   0.15656   0.20450   1.000
    O129    O    0.54285   0.39065   0.25189   1.000
    O130    O    0.47670   0.36937   0.26093   1.000
    N131    N    0.75160   0.99142   0.98438   1.000
    O132    O    0.78288   0.02145   0.10196   1.000
    O133    O    0.72403   0.00013   0.07892   1.000
    O134    O    0.70455   0.96836   0.91548   1.000
    O135    O    0.79552   0.99888   0.86502   1.000
    O136    O    0.73666   0.97760   0.88807   1.000
    O137    O    0.84934   0.00761   0.01285   1.000
    O138    O    0.69691   0.98200   0.05122   1.000
    O139    O    0.85286   0.00212   0.96615   1.000
loop_
    _geom_bond_atom_site_label_1
    _geom_bond_atom_site_label_2
    _geom_bond_distance
    _geom_bond_site_symmetry_2
    _ccdc_geom_bond_type
    N20    O21       1.51722  1_556   S
    Zr19   O21       2.20316      .   S
    N20    O22       1.36189  1_556   S
    Zr5    O22       2.46297      .   S
    N20    O23       1.37083      .   S
    Zr6    O23       2.47640      .   S
    N20    O24       2.06317      .   S
    Zr7    O24       3.19859      .   S
    N20    O25       1.61003      .   S
    Zr6    O25       2.35105      .   S
    N20    O26       2.03878  1_556   S
    Zr4    O26       3.15261      .   S
    N20    O27       1.60820  1_556   S
    Zr5    O27       2.32444      .   S
    N20    O28       1.51105      .   S
    Zr19   O28       2.21007  1_554   S
    N29    O30       2.00479      .   S
    Zr15   O30       3.13682      .   S
    N29    O31       1.41744      .   S
    Zr11   O31       2.49150      .   S
    N29    O32       1.43358      .   S
    Zr4    O32       2.51031      .   S
    N29    O33       2.00281      .   S
    Zr0    O33       3.10105  1_545   S
    N29    O34       1.61348      .   S
    Zr11   O34       2.39032      .   S
    N35    O36       1.51709      .   S
    Zr18   O36       2.20259  1_455   S
    N35    O37       1.37061      .   S
    Zr4    O37       2.47625      .   S
    N35    O38       1.36303      .   S
    Zr7    O38       2.46212      .   S
    N35    O39       2.06300      .   S
    Zr5    O39       3.19848      .   S
    N35    O40       1.60983      .   S
    Zr4    O40       2.35090      .   S
    N35    O41       2.03924      .   S
    Zr6    O41       3.15238      .   S
    N35    O42       1.60868      .   S
    Zr7    O42       2.32446      .   S
    N35    O43       1.51086      .   S
    Zr18   O43       2.20943  1_455   S
    N44    O45       2.06334      .   S
    Zr1    O45       3.19857  1_565   S
    N44    O46       1.61085      .   S
    Zr0    O46       2.35226      .   S
    N44    O47       1.51649  1_544   S
    Zr16   O47       2.20327  1_544   S
    N44    O48       1.36308  1_554   S
    Zr3    O48       2.46189      .   S
    N44    O49       1.51073  1_545   S
    Zr16   O49       2.20970  1_545   S
    N44    O50       2.03808  1_544   S
    Zr2    O50       3.15134      .   S
    N44    O51       1.60802  1_544   S
    Zr3    O51       2.32470  1_545   S
    N44    O52       1.37199      .   S
    Zr0    O52       2.47743      .   S
    N53    O54       2.00467  1_455   S
    Zr9    O54       3.13649  1_545   S
    N53    O55       1.41729      .   S
    Zr13   O55       2.49125      .   S
    N53    O56       1.43352      .   S
    Zr2    O56       2.51021      .   S
    N53    O57       2.00270  1_455   S
    Zr6    O57       3.10090      .   S
    N53    O58       1.61337      .   S
    Zr13   O58       2.39000      .   S
    N59    O60       1.41743      .   S
    Zr7    O60       2.49147      .   S
    N59    O61       2.00479      .   S
    Zr3    O61       3.13685  1_545   S
    N59    O62       1.43359      .   S
    Zr8    O62       2.51033      .   S
    N59    O63       1.61347      .   S
    Zr7    O63       2.39028      .   S
    N59    O64       2.00279      .   S
    Zr12   O64       3.10098      .   S
    N65    O66       2.00271  1_655   S
    Zr14   O66       3.10094      .   S
    N65    O67       1.61336      .   S
    Zr5    O67       2.39002      .   S
    N65    O68       1.41730      .   S
    Zr5    O68       2.49126      .   S
    N65    O69       2.00466  1_655   S
    Zr1    O69       3.13646  1_565   S
    N65    O70       1.43351      .   S
    Zr10   O70       2.51020      .   S
    N71    O72       1.41743      .   S
    Zr3    O72       2.49149      .   S
    N71    O73       2.00281      .   S
    Zr8    O73       3.10108  1_565   S
    N71    O74       1.61347      .   S
    Zr3    O74       2.39030      .   S
    N71    O75       1.43359      .   S
    Zr12   O75       2.51033      .   S
    N71    O76       2.00477      .   S
    Zr7    O76       3.13676      .   S
    N77    O78       2.00273  1_455   S
    Zr10   O78       3.10100  1_545   S
    N77    O79       1.61340      .   S
    Zr1    O79       2.39008      .   S
    N77    O80       2.00460  1_455   S
    Zr5    O80       3.13633      .   S
    N77    O81       1.43352      .   S
    Zr14   O81       2.51022      .   S
    N77    O82       1.41726      .   S
    Zr1    O82       2.49139      .   S
    N83    O84       1.60789  1_545   S
    Zr9    O84       2.32453  1_545   S
    N83    O85       2.03791  1_545   S
    Zr8    O85       3.15118      .   S
    N83    O86       1.36297      .   S
    Zr9    O86       2.46173      .   S
    N83    O87       1.51078  1_545   S
    Zr17   O87       2.20974  1_545   S
    N83    O88       1.37196      .   S
    Zr10   O88       2.47727      .   S
    N83    O89       1.61075      .   S
    Zr10   O89       2.35213      .   S
    N83    O90       2.06321      .   S
    Zr11   O90       3.19840  1_565   S
    N83    O91       1.51643  1_545   S
    Zr17   O91       2.20354  1_545   S
    N92    O93       1.51110      .   S
    Zr19   O93       2.20983      .   S
    N92    O94       1.51710  1_554   S
    Zr19   O94       2.20316  1_554   S
    N92    O95       1.37109      .   S
    Zr14   O95       2.47667      .   S
    N92    O96       1.36259  1_554   S
    Zr13   O96       2.46161      .   S
    N92    O97       2.03877  1_554   S
    Zr12   O97       3.15193      .   S
    N92    O98       1.60822  1_554   S
    Zr13   O98       2.32393      .   S
    N92    O99       2.06351      .   S
    Zr15   O99       3.19901      .   S
    N92    O100      1.61033      .   S
    Zr14   O100      2.35127      .   S
    N101   O102      2.06340      .   S
    Zr3    O102      3.19881  1_545   S
    N101   O103      1.61026      .   S
    Zr2    O103      2.35119      .   S
    N101   O104      2.03872  1_565   S
    Zr0    O104      3.15188      .   S
    N101   O105      1.60816  1_565   S
    Zr1    O105      2.32389  1_565   S
    N101   O106      1.36254      .   S
    Zr1    O106      2.46155      .   S
    N101   O107      1.51103  1_565   S
    Zr17   O107      2.21016      .   S
    N101   O108      1.51723  1_565   S
    Zr17   O108      2.20310      .   S
    N101   O109      1.37100      .   S
    Zr2    O109      2.47659      .   S
    N110   O111      1.43352      .   S
    Zr6    O111      2.51021      .   S
    N110   O112      2.00463  1_655   S
    Zr13   O112      3.13637      .   S
    N110   O113      1.41732      .   S
    Zr9    O113      2.49129      .   S
    N110   O114      2.00271  1_655   S
    Zr2    O114      3.10097  1_565   S
    N110   O115      1.61338      .   S
    Zr9    O115      2.39005      .   S
    N116   O117      1.51701      .   S
    Zr18   O117      2.20297      .   S
    N116   O118      1.51107      .   S
    Zr18   O118      2.20959      .   S
    N116   O119      1.36254      .   S
    Zr15   O119      2.46158      .   S
    N116   O120      2.03909      .   S
    Zr14   O120      3.15164      .   S
    N116   O121      1.60847      .   S
    Zr15   O121      2.32371      .   S
    N116   O122      1.37110      .   S
    Zr12   O122      2.47676      .   S
    N116   O123      2.06349      .   S
    Zr13   O123      3.19897      .   S
    N116   O124      1.61036      .   S
    Zr12   O124      2.35136      .   S
    N125   O126      1.41745      .   S
    Zr15   O126      2.49151      .   S
    N125   O127      1.43358      .   S
    Zr0    O127      2.51030      .   S
    N125   O128      2.00480      .   S
    Zr11   O128      3.13689  1_565   S
    N125   O129      2.00280      .   S
    Zr4    O129      3.10098      .   S
    N125   O130      1.61349      .   S
    Zr15   O130      2.39032      .   S
    N131   O132      2.03891  1_566   S
    Zr10   O132      3.15207      .   S
    N131   O133      1.60833  1_566   S
    Zr11   O133      2.32414  1_565   S
    N131   O134      1.37106      .   S
    Zr8    O134      2.47675      .   S
    N131   O135      2.06348      .   S
    Zr9    O135      3.19887  1_545   S
    N131   O136      1.61036      .   S
    Zr8    O136      2.35133      .   S
    N131   O137      1.51691  1_566   S
    Zr16   O137      2.20255  1_455   S
    N131   O138      1.36271  1_556   S
    Zr11   O138      2.46177      .   S
    N131   O139      1.51091  1_565   S
    Zr16   O139      2.20927  1_454   S
