# CIF file generated by openbabel 2.4.90, see http://openbabel.sf.net
data_I
_chemical_name_common ''
_cell_length_a 16.985
_cell_length_b 20.631
_cell_length_c 14.176
_cell_angle_alpha 67.192
_cell_angle_beta 75.133
_cell_angle_gamma 76.554
_space_group_name_H-M_alt 'P 1'
_space_group_name_Hall 'P 1'
loop_
    _symmetry_equiv_pos_as_xyz
    x,y,z
loop_
    _atom_site_label
    _atom_site_type_symbol
    _atom_site_fract_x
    _atom_site_fract_y
    _atom_site_fract_z
    _atom_site_occupancy
    Zn0     Zn   0.46414   0.71716   0.15355   1.000
    Zn1     Zn   0.96415   0.21716   0.15353   1.000
    Zn2     Zn   0.96413   0.71716   0.15354   1.000
    Zn3     Zn   0.03587   0.28284   0.84691   1.000
    Zn4     Zn   0.03586   0.78284   0.84690   1.000
    Zn5     Zn   0.53588   0.28285   0.84690   1.000
    Zn6     Zn   0.53588   0.78284   0.84692   1.000
    Zn7     Zn   0.46414   0.21717   0.15353   1.000
    C8      C    0.49381   0.13992   0.00617   1.000
    C9      C    0.49380   0.63992   0.00610   1.000
    C10     C    0.99381   0.13992   0.00617   1.000
    C11     C    0.99378   0.63992   0.00610   1.000
    C12     C    0.37831   0.23960   0.32366   1.000
    C13     C    0.37831   0.73958   0.32368   1.000
    C14     C    0.87831   0.23960   0.32366   1.000
    C15     C    0.87831   0.73959   0.32360   1.000
    C16     C    0.00623   0.36010   0.99426   1.000
    C17     C    0.00622   0.86009   0.99420   1.000
    C18     C    0.50624   0.36010   0.99426   1.000
    C19     C    0.50625   0.86009   0.99428   1.000
    C20     C    0.12166   0.26041   0.67670   1.000
    C21     C    0.12166   0.76041   0.67677   1.000
    C22     C    0.62166   0.26042   0.67675   1.000
    C23     C    0.62167   0.76040   0.67677   1.000
    O24     O    0.44470   0.15530   0.08207   1.000
    O25     O    0.44468   0.65530   0.08209   1.000
    O26     O    0.94470   0.15529   0.08208   1.000
    O27     O    0.94467   0.65529   0.08209   1.000
    O28     O    0.04194   0.17953   0.93403   1.000
    O29     O    0.04192   0.67953   0.93405   1.000
    O30     O    0.54195   0.17953   0.93400   1.000
    O31     O    0.54195   0.67953   0.93405   1.000
    O32     O    0.36340   0.21122   0.26312   1.000
    O33     O    0.36339   0.71121   0.26313   1.000
    O34     O    0.86340   0.21121   0.26312   1.000
    O35     O    0.86340   0.71121   0.26313   1.000
    O36     O    0.44431   0.26268   0.30740   1.000
    O37     O    0.44431   0.76266   0.30743   1.000
    O38     O    0.94431   0.26269   0.30740   1.000
    O39     O    0.94431   0.76267   0.30742   1.000
    O40     O    0.05533   0.34474   0.91833   1.000
    O41     O    0.05532   0.84473   0.91835   1.000
    O42     O    0.55533   0.34474   0.91833   1.000
    O43     O    0.55534   0.84473   0.91835   1.000
    O44     O    0.45811   0.32047   0.06640   1.000
    O45     O    0.45813   0.82047   0.06643   1.000
    O46     O    0.95811   0.32047   0.06640   1.000
    O47     O    0.95810   0.82047   0.06642   1.000
    O48     O    0.13658   0.28882   0.73727   1.000
    O49     O    0.13657   0.78881   0.73728   1.000
    O50     O    0.63658   0.28882   0.73726   1.000
    O51     O    0.63658   0.78881   0.73728   1.000
    O52     O    0.05568   0.23731   0.69305   1.000
    O53     O    0.05567   0.73730   0.69306   1.000
    O54     O    0.55568   0.23732   0.69304   1.000
    O55     O    0.55568   0.73730   0.69307   1.000
loop_
    _geom_bond_atom_site_label_1
    _geom_bond_atom_site_label_2
    _geom_bond_distance
    _geom_bond_site_symmetry_2
    _ccdc_geom_bond_type
    C9     O25       1.27976      .   S
    C9     O31       1.27079  1_554   S
    C11    O27       1.27975      .   S
    C11    O29       1.27064  1_654   S
    C8     O24       1.27873      .   S
    C8     O30       1.27141  1_554   S
    C10    O26       1.27884      .   S
    C10    O28       1.27111  1_654   S
    O46    Zn1       2.00029      .   S
    O46    C16       1.27108  1_654   S
    O44    Zn7       2.00031      .   S
    O44    C18       1.27121  1_554   S
    O47    Zn2       2.00031      .   S
    O47    C17       1.27152  1_654   S
    O45    Zn0       2.00030      .   S
    O45    C19       1.27121  1_554   S
    O24    Zn7       2.03332      .   S
    O26    Zn1       2.03332      .   S
    O27    Zn2       2.03339      .   S
    O25    Zn0       2.03334      .   S
    Zn7    O32       1.98552      .   S
    Zn1    O34       1.98553      .   S
    Zn2    O35       1.98544      .   S
    Zn0    O33       1.98548      .   S
    O32    C12       1.30913      .   S
    O34    C14       1.30915      .   S
    O33    C13       1.30908      .   S
    O35    C15       1.30819      .   S
    O38    C14       1.25180      .   S
    O36    C12       1.25178      .   S
    O39    C15       1.25199      .   S
    O37    C13       1.25180      .   S
    C20    O52       1.25163      .   S
    C20    O48       1.30981      .   S
    C22    O54       1.25179      .   S
    C22    O50       1.30902      .   S
    C23    O55       1.25176      .   S
    C23    O51       1.30915      .   S
    C21    O53       1.25179      .   S
    C21    O49       1.30904      .   S
    O50    Zn5       1.98544      .   S
    O48    Zn3       1.98548      .   S
    O49    Zn4       1.98537      .   S
    O51    Zn6       1.98541      .   S
    Zn5    O42       2.03366      .   S
    Zn5    O30       2.00023      .   S
    Zn4    O41       2.03381      .   S
    Zn4    O29       2.00033      .   S
    Zn3    O40       2.03356      .   S
    Zn3    O28       2.00028      .   S
    Zn6    O43       2.03368      .   S
    Zn6    O31       2.00028      .   S
    O42    C18       1.27880      .   S
    O40    C16       1.27881      .   S
    O43    C19       1.27879      .   S
    O41    C17       1.27796      .   S
