# CIF file generated by openbabel 2.4.90, see http://openbabel.sf.net
data_I
_chemical_name_common ''
_cell_length_a 16.985
_cell_length_b 20.631
_cell_length_c 14.176
_cell_angle_alpha 67.192
_cell_angle_beta 75.133
_cell_angle_gamma 76.554
_space_group_name_H-M_alt 'P 1'
_space_group_name_Hall 'P 1'
loop_
    _symmetry_equiv_pos_as_xyz
    x,y,z
loop_
    _atom_site_label
    _atom_site_type_symbol
    _atom_site_fract_x
    _atom_site_fract_y
    _atom_site_fract_z
    _atom_site_occupancy
    Zr0     Zr   0.46414   0.21717   0.15353   1.000
    Zr1     Zr   0.46414   0.71716   0.15355   1.000
    Zr2     Zr   0.96415   0.21716   0.15353   1.000
    Zr3     Zr   0.96413   0.71716   0.15354   1.000
    Zr4     Zr   0.03587   0.28284   0.84691   1.000
    Zr5     Zr   0.03586   0.78284   0.84690   1.000
    Zr6     Zr   0.53588   0.28285   0.84690   1.000
    Zr7     Zr   0.53588   0.78284   0.84692   1.000
    Zr8     Zr   0.49381   0.13992   0.00617   1.000
    Zr9     Zr   0.49380   0.63992   0.00610   1.000
    Zr10    Zr   0.99381   0.13992   0.00617   1.000
    Zr11    Zr   0.99378   0.63992   0.00610   1.000
    Zr12    Zr   0.37831   0.23960   0.32366   1.000
    Zr13    Zr   0.37831   0.73958   0.32368   1.000
    Zr14    Zr   0.87831   0.23960   0.32366   1.000
    Zr15    Zr   0.87831   0.73959   0.32360   1.000
    Zr16    Zr   0.00623   0.36010   0.99426   1.000
    Zr17    Zr   0.00622   0.86009   0.99420   1.000
    Zr18    Zr   0.50624   0.36010   0.99426   1.000
    Zr19    Zr   0.50625   0.86009   0.99428   1.000
    Zr20    Zr   0.12166   0.26041   0.67670   1.000
    Zr21    Zr   0.12166   0.76041   0.67677   1.000
    Zr22    Zr   0.62166   0.26042   0.67675   1.000
    Zr23    Zr   0.62167   0.76040   0.67677   1.000
    Zr24    Zr   0.44470   0.15530   0.08207   1.000
    Zr25    Zr   0.44468   0.65530   0.08209   1.000
    Zr26    Zr   0.94470   0.15529   0.08208   1.000
    Zr27    Zr   0.94467   0.65529   0.08209   1.000
    Zr28    Zr   0.04194   0.17953   0.93403   1.000
    Zr29    Zr   0.04192   0.67953   0.93405   1.000
    Zr30    Zr   0.54195   0.17953   0.93400   1.000
    Zr31    Zr   0.54195   0.67953   0.93405   1.000
    Zr32    Zr   0.36340   0.21122   0.26312   1.000
    Zr33    Zr   0.36339   0.71121   0.26313   1.000
    Zr34    Zr   0.86340   0.21121   0.26312   1.000
    Zr35    Zr   0.86340   0.71121   0.26313   1.000
    Zr36    Zr   0.44431   0.26268   0.30740   1.000
    Zr37    Zr   0.44431   0.76266   0.30743   1.000
    Zr38    Zr   0.94431   0.26269   0.30740   1.000
    Zr39    Zr   0.94431   0.76267   0.30742   1.000
    Zr40    Zr   0.05533   0.34474   0.91833   1.000
    Zr41    Zr   0.05532   0.84473   0.91835   1.000
    Zr42    Zr   0.55533   0.34474   0.91833   1.000
    Zr43    Zr   0.55534   0.84473   0.91835   1.000
    Zr44    Zr   0.45811   0.32047   0.06640   1.000
    Zr45    Zr   0.45813   0.82047   0.06643   1.000
    Zr46    Zr   0.95811   0.32047   0.06640   1.000
    Zr47    Zr   0.95810   0.82047   0.06642   1.000
    Zr48    Zr   0.13658   0.28882   0.73727   1.000
    Zr49    Zr   0.13657   0.78881   0.73728   1.000
    Zr50    Zr   0.63658   0.28882   0.73726   1.000
    Zr51    Zr   0.63658   0.78881   0.73728   1.000
    Zr52    Zr   0.05568   0.23731   0.69305   1.000
    Zr53    Zr   0.05567   0.73730   0.69306   1.000
    Zr54    Zr   0.55568   0.23732   0.69304   1.000
    Zr55    Zr   0.55568   0.73730   0.69307   1.000
    O56     O    0.46924   0.64761   0.04409   1.000
    O57     O    0.51787   0.65972   0.97008   1.000
    O58     O    0.96923   0.64761   0.04409   1.000
    O59     O    0.01785   0.65973   0.97008   1.000
    O60     O    0.46925   0.14761   0.04412   1.000
    O61     O    0.51788   0.15973   0.97008   1.000
    O62     O    0.96926   0.14761   0.04412   1.000
    O63     O    0.01788   0.15972   0.97010   1.000
    O64     O    0.96113   0.26882   0.10996   1.000
    O65     O    0.98217   0.34028   0.03033   1.000
    O66     O    0.46113   0.26882   0.10996   1.000
    O67     O    0.48217   0.34029   0.03033   1.000
    O68     O    0.96112   0.76882   0.10998   1.000
    O69     O    0.98216   0.84028   0.03031   1.000
    O70     O    0.46113   0.76881   0.10999   1.000
    O71     O    0.48219   0.84028   0.03036   1.000
    O72     O    0.45442   0.18623   0.11780   1.000
    O73     O    0.95442   0.18623   0.11780   1.000
    O74     O    0.95440   0.68623   0.11781   1.000
    O75     O    0.45441   0.68623   0.11782   1.000
    O76     O    0.41377   0.21419   0.20833   1.000
    O77     O    0.91378   0.21419   0.20833   1.000
    O78     O    0.91376   0.71419   0.20833   1.000
    O79     O    0.41376   0.71419   0.20834   1.000
    O80     O    0.37085   0.22541   0.29339   1.000
    O81     O    0.87086   0.22541   0.29339   1.000
    O82     O    0.37085   0.72540   0.29341   1.000
    O83     O    0.87085   0.72540   0.29336   1.000
    O84     O    0.91131   0.25114   0.31553   1.000
    O85     O    0.41131   0.25114   0.31553   1.000
    O86     O    0.91131   0.75113   0.31551   1.000
    O87     O    0.41131   0.75112   0.31556   1.000
    O88     O    0.08867   0.24886   0.68488   1.000
    O89     O    0.12912   0.27462   0.70698   1.000
    O90     O    0.58867   0.24887   0.68489   1.000
    O91     O    0.62912   0.27462   0.70700   1.000
    O92     O    0.58867   0.74885   0.68492   1.000
    O93     O    0.62912   0.77461   0.70703   1.000
    O94     O    0.08866   0.74886   0.68492   1.000
    O95     O    0.12911   0.77461   0.70703   1.000
    O96     O    0.58623   0.28583   0.79208   1.000
    O97     O    0.08622   0.28583   0.79209   1.000
    O98     O    0.08622   0.78582   0.79209   1.000
    O99     O    0.58623   0.78582   0.79210   1.000
    O100    O    0.54561   0.31379   0.88261   1.000
    O101    O    0.53892   0.23119   0.89045   1.000
    O102    O    0.04559   0.81379   0.88262   1.000
    O103    O    0.03889   0.73119   0.89048   1.000
    O104    O    0.04560   0.31379   0.88262   1.000
    O105    O    0.03890   0.23119   0.89047   1.000
    O106    O    0.54561   0.81379   0.88264   1.000
    O107    O    0.53891   0.73118   0.89049   1.000
    O108    O    0.53079   0.35242   0.95630   1.000
    O109    O    0.03078   0.35242   0.95630   1.000
    O110    O    0.53079   0.85241   0.95632   1.000
    O111    O    0.03077   0.85241   0.95627   1.000
    N112    N    0.74999   0.75000   0.50022   1.000
    O113    O    0.79749   0.74595   0.43470   1.000
    O114    O    0.70249   0.75405   0.56572   1.000
    N115    N    0.75000   1.00000   0.00028   1.000
    O116    O    0.86413   0.90212   0.91750   1.000
    O117    O    0.63587   0.09787   0.08301   1.000
    N118    N    0.50002   0.00001   0.00023   1.000
    O119    O    0.49771   0.05187   0.00246   1.000
    O120    O    0.50234   0.94815   0.99799   1.000
    N121    N    0.25000   0.99999   0.00029   1.000
    O122    O    0.13587   0.09787   0.08302   1.000
    O123    O    0.36414   0.90212   0.91752   1.000
    N124    N    0.50001   0.50001   0.00023   1.000
    O125    O    0.50233   0.44815   0.99799   1.000
    O126    O    0.49769   0.55187   0.00245   1.000
    N127    N    0.24999   0.50000   0.00027   1.000
    O128    O    0.13586   0.59787   0.08301   1.000
    O129    O    0.36413   0.40212   0.91750   1.000
    N130    N    0.75000   0.49999   0.00026   1.000
    O131    O    0.86413   0.40212   0.91748   1.000
    O132    O    0.63587   0.59787   0.08301   1.000
    N133    N    0.00001   0.00001   0.00024   1.000
    O134    O    0.99770   0.05186   0.00247   1.000
    O135    O    0.00232   0.94815   0.99798   1.000
    N136    N    0.00000   0.50001   0.00024   1.000
    O137    O    0.99769   0.55186   0.00245   1.000
    O138    O    0.00232   0.44815   0.99799   1.000
    N139    N    0.24999   0.75000   0.50023   1.000
    O140    O    0.29749   0.74595   0.43473   1.000
    O141    O    0.20248   0.75405   0.56573   1.000
    N142    N    0.24999   0.25001   0.50021   1.000
    O143    O    0.20248   0.25406   0.56569   1.000
    O144    O    0.29749   0.24596   0.43471   1.000
    N145    N    0.74999   0.25002   0.50019   1.000
    O146    O    0.79749   0.24597   0.43470   1.000
    O147    O    0.70248   0.25406   0.56570   1.000
loop_
    _geom_bond_atom_site_label_1
    _geom_bond_atom_site_label_2
    _geom_bond_distance
    _geom_bond_site_symmetry_2
    _ccdc_geom_bond_type
    Zr9    O56       0.63988      .   S
    Zr25   O56       0.63988      .   S
    Zr9    O57       0.63539  1_554   S
    Zr31   O57       0.63539      .   S
    Zr11   O58       0.63987      .   S
    Zr27   O58       0.63987      .   S
    Zr11   O59       0.63532  1_654   S
    Zr29   O59       0.63532      .   S
    Zr8    O60       0.63937      .   S
    Zr24   O60       0.63937      .   S
    Zr8    O61       0.63571  1_554   S
    Zr30   O61       0.63571      .   S
    Zr10   O62       0.63942      .   S
    Zr26   O62       0.63942      .   S
    Zr10   O63       0.63555  1_654   S
    Zr28   O63       0.63555      .   S
    Zr46   O64       1.00014      .   S
    Zr2    O64       1.00014      .   S
    Zr46   O65       0.63554      .   S
    Zr16   O65       0.63554  1_456   S
    Zr44   O66       1.00015      .   S
    Zr0    O66       1.00015      .   S
    Zr44   O67       0.63561      .   S
    Zr18   O67       0.63561  1_556   S
    Zr47   O68       1.00015      .   S
    Zr3    O68       1.00015      .   S
    Zr47   O69       0.63576      .   S
    Zr17   O69       0.63576  1_456   S
    Zr45   O70       1.00015      .   S
    Zr1    O70       1.00015      .   S
    Zr45   O71       0.63560      .   S
    Zr19   O71       0.63560  1_556   S
    Zr24   O72       1.01666      .   S
    Zr0    O72       1.01666      .   S
    Zr26   O73       1.01666      .   S
    Zr2    O73       1.01666      .   S
    Zr27   O74       1.01669      .   S
    Zr3    O74       1.01669      .   S
    Zr25   O75       1.01667      .   S
    Zr1    O75       1.01667      .   S
    Zr0    O76       0.99276      .   S
    Zr32   O76       0.99276      .   S
    Zr2    O77       0.99276      .   S
    Zr34   O77       0.99276      .   S
    Zr3    O78       0.99272      .   S
    Zr35   O78       0.99272      .   S
    Zr1    O79       0.99274      .   S
    Zr33   O79       0.99274      .   S
    Zr32   O80       0.65457      .   S
    Zr12   O80       0.65457      .   S
    Zr34   O81       0.65457      .   S
    Zr14   O81       0.65457      .   S
    Zr33   O82       0.65454      .   S
    Zr13   O82       0.65454      .   S
    Zr35   O83       0.65410      .   S
    Zr15   O83       0.65410      .   S
    Zr38   O84       0.62590      .   S
    Zr14   O84       0.62590      .   S
    Zr36   O85       0.62589      .   S
    Zr12   O85       0.62589      .   S
    Zr39   O86       0.62599      .   S
    Zr15   O86       0.62599      .   S
    Zr37   O87       0.62590      .   S
    Zr13   O87       0.62590      .   S
    Zr20   O88       0.62581      .   S
    Zr52   O88       0.62581      .   S
    Zr20   O89       0.65490      .   S
    Zr48   O89       0.65490      .   S
    Zr22   O90       0.62590      .   S
    Zr54   O90       0.62590      .   S
    Zr22   O91       0.65451      .   S
    Zr50   O91       0.65451      .   S
    Zr23   O92       0.62588      .   S
    Zr55   O92       0.62588      .   S
    Zr23   O93       0.65458      .   S
    Zr51   O93       0.65458      .   S
    Zr21   O94       0.62590      .   S
    Zr53   O94       0.62590      .   S
    Zr21   O95       0.65452      .   S
    Zr49   O95       0.65452      .   S
    Zr50   O96       0.99272      .   S
    Zr6    O96       0.99272      .   S
    Zr48   O97       0.99274      .   S
    Zr4    O97       0.99274      .   S
    Zr49   O98       0.99269      .   S
    Zr5    O98       0.99269      .   S
    Zr51   O99       0.99270      .   S
    Zr7    O99       0.99270      .   S
    Zr6    O100      1.01683      .   S
    Zr42   O100      1.01683      .   S
    Zr6    O101      1.00012      .   S
    Zr30   O101      1.00012      .   S
    Zr5    O102      1.01690      .   S
    Zr41   O102      1.01690      .   S
    Zr5    O103      1.00017      .   S
    Zr29   O103      1.00017      .   S
    Zr4    O104      1.01678      .   S
    Zr40   O104      1.01678      .   S
    Zr4    O105      1.00014      .   S
    Zr28   O105      1.00014      .   S
    Zr7    O106      1.01684      .   S
    Zr43   O106      1.01684      .   S
    Zr7    O107      1.00014      .   S
    Zr31   O107      1.00014      .   S
    Zr42   O108      0.63940      .   S
    Zr18   O108      0.63940      .   S
    Zr40   O109      0.63940      .   S
    Zr16   O109      0.63940      .   S
    Zr43   O110      0.63939      .   S
    Zr19   O110      0.63939      .   S
    Zr41   O111      0.63898      .   S
    Zr17   O111      0.63898      .   S
    N112   O113      1.07929      .   S
    Zr15   O113      1.83008      .   S
    N112   O114      1.07912      .   S
    Zr23   O114      1.82953      .   S
    N115   O116      2.83928  1_554   S
    Zr5    O116      3.55512  1_455   S
    N115   O117      2.83900  1_565   S
    Zr0    O117      3.55483      .   S
    N118   O119      1.07393      .   S
    Zr8    O119      1.82312      .   S
    N118   O120      1.07394  1_544   S
    Zr19   O120      1.82313      .   S
    N121   O122      2.83899  1_565   S
    Zr2    O122      3.55472  1_655   S
    N121   O123      2.83929  1_554   S
    Zr7    O123      3.55521      .   S
    N124   O125      1.07394  1_554   S
    Zr18   O125      1.82316      .   S
    N124   O126      1.07378      .   S
    Zr9    O126      1.82272      .   S
    N127   O128      2.83902      .   S
    Zr3    O128      3.55481  1_655   S
    N127   O129      2.83929  1_554   S
    Zr6    O129      3.55523      .   S
    N130   O131      2.83927  1_554   S
    Zr4    O131      3.55498  1_455   S
    N130   O132      2.83912      .   S
    Zr1    O132      3.55493      .   S
    N133   O134      1.07392  1_455   S
    Zr10   O134      1.82308      .   S
    N133   O135      1.07408  1_544   S
    Zr17   O135      1.82348      .   S
    N136   O137      1.07379  1_455   S
    Zr11   O137      1.82273      .   S
    N136   O138      1.07395  1_554   S
    Zr16   O138      1.82317      .   S
    N139   O140      1.07912      .   S
    Zr13   O140      1.82958      .   S
    N139   O141      1.07911      .   S
    Zr21   O141      1.82953      .   S
    N142   O143      1.07897      .   S
    Zr20   O143      1.82912      .   S
    N142   O144      1.07911      .   S
    Zr12   O144      1.82956      .   S
    N145   O146      1.07908      .   S
    Zr14   O146      1.82950      .   S
    N145   O147      1.07915      .   S
    Zr22   O147      1.82959      .   S
