# CIF file generated by openbabel 2.4.90, see http://openbabel.sf.net
data_I
_chemical_name_common ''
_cell_length_a 24.165
_cell_length_b 15.381
_cell_length_c 17.043
_cell_angle_alpha 89.908
_cell_angle_beta 90.006
_cell_angle_gamma 91.729
_space_group_name_H-M_alt 'P 1'
_space_group_name_Hall 'P 1'
loop_
    _symmetry_equiv_pos_as_xyz
    x,y,z
loop_
    _atom_site_label
    _atom_site_type_symbol
    _atom_site_fract_x
    _atom_site_fract_y
    _atom_site_fract_z
    _atom_site_occupancy
    H0      H    0.33677   0.40099   0.82048   1.000
    H1      H    0.83681   0.40095   0.82047   1.000
    H2      H    0.29652   0.43355   0.95018   1.000
    H3      H    0.79656   0.43355   0.95015   1.000
    H4      H    0.28643   0.54321   0.92140   1.000
    H5      H    0.78645   0.54320   0.92141   1.000
    H6      H    0.46210   0.15949   0.69251   1.000
    H7      H    0.96208   0.15950   0.69250   1.000
    H8      H    0.45805   0.35656   0.71685   1.000
    H9      H    0.95788   0.35655   0.71687   1.000
    H10     H    0.48566   0.28106   0.78399   1.000
    H11     H    0.98554   0.28108   0.78400   1.000
    H12     H    0.05790   0.24208   0.69000   1.000
    H13     H    0.55793   0.24181   0.68990   1.000
    H14     H    0.01074   0.38247   0.58241   1.000
    H15     H    0.51088   0.38236   0.58238   1.000
    H16     H    0.06952   0.32120   0.56239   1.000
    H17     H    0.56960   0.32097   0.56232   1.000
    H18     H    0.31341   0.58979   0.77677   1.000
    H19     H    0.81344   0.58973   0.77670   1.000
    H20     H    0.34024   0.51060   0.71365   1.000
    H21     H    0.84030   0.51055   0.71362   1.000
    H22     H    0.42512   0.50158   0.79605   1.000
    H23     H    0.92517   0.50163   0.79605   1.000
    H24     H    0.37463   0.64404   0.89703   1.000
    H25     H    0.87462   0.64406   0.89699   1.000
    H26     H    0.44098   0.59966   0.90850   1.000
    H27     H    0.94097   0.59974   0.90848   1.000
    H28     H    0.39762   0.45450   0.93991   1.000
    H29     H    0.89765   0.45453   0.93987   1.000
    H30     H    0.41055   0.18493   0.56872   1.000
    H31     H    0.91056   0.18490   0.56868   1.000
    H32     H    0.41253   0.29834   0.58606   1.000
    H33     H    0.91247   0.29830   0.58603   1.000
    H34     H    0.01344   0.18495   0.55990   1.000
    H35     H    0.51342   0.18483   0.55980   1.000
    H36     H    0.41304   0.09855   0.31946   1.000
    H37     H    0.91305   0.09854   0.31944   1.000
    H38     H    0.45315   0.06684   0.44949   1.000
    H39     H    0.95314   0.06684   0.44948   1.000
    H40     H    0.46365   0.95714   0.42153   1.000
    H41     H    0.96365   0.95714   0.42153   1.000
    H42     H    0.28795   0.34059   0.19200   1.000
    H43     H    0.78796   0.34054   0.19211   1.000
    H44     H    0.29247   0.14362   0.21738   1.000
    H45     H    0.79245   0.14356   0.21734   1.000
    H46     H    0.26468   0.21912   0.28415   1.000
    H47     H    0.76468   0.21905   0.28413   1.000
    H48     H    0.19221   0.25753   0.18996   1.000
    H49     H    0.69221   0.25752   0.18990   1.000
    H50     H    0.23972   0.11709   0.08306   1.000
    H51     H    0.73969   0.11708   0.08304   1.000
    H52     H    0.18074   0.17791   0.06272   1.000
    H53     H    0.68073   0.17791   0.06271   1.000
    H54     H    0.43688   0.90971   0.27699   1.000
    H55     H    0.93688   0.90969   0.27700   1.000
    H56     H    0.40982   0.98840   0.21336   1.000
    H57     H    0.90985   0.98838   0.21335   1.000
    H58     H    0.32488   0.99714   0.29573   1.000
    H59     H    0.82490   0.99717   0.29570   1.000
    H60     H    0.37585   0.85551   0.39753   1.000
    H61     H    0.87585   0.85550   0.39748   1.000
    H62     H    0.30932   0.89925   0.40866   1.000
    H63     H    0.80932   0.89923   0.40862   1.000
    H64     H    0.35214   0.04499   0.43913   1.000
    H65     H    0.85213   0.04497   0.43910   1.000
    H66     H    0.33943   0.31513   0.06837   1.000
    H67     H    0.83941   0.31512   0.06837   1.000
    H68     H    0.33773   0.20176   0.08623   1.000
    H69     H    0.83771   0.20174   0.08619   1.000
    H70     H    0.23648   0.31454   0.05979   1.000
    H71     H    0.73647   0.31453   0.05970   1.000
    H72     H    0.16320   0.59906   0.17953   1.000
    H73     H    0.66324   0.59902   0.17952   1.000
    H74     H    0.20345   0.56646   0.04984   1.000
    H75     H    0.70348   0.56646   0.04981   1.000
    C76     C    0.49187   0.24706   0.55419   1.000
    C77     C    0.99185   0.24713   0.55422   1.000
    H78     H    0.21355   0.45681   0.07858   1.000
    H79     H    0.71357   0.45680   0.07852   1.000
    H80     H    0.03793   0.84051   0.30749   1.000
    H81     H    0.53790   0.84051   0.30748   1.000
    H82     H    0.04214   0.64347   0.28312   1.000
    H83     H    0.54197   0.64344   0.28314   1.000
    H84     H    0.01448   0.71893   0.21599   1.000
    H85     H    0.51435   0.71893   0.21600   1.000
    H86     H    0.44206   0.75815   0.31002   1.000
    H87     H    0.94210   0.75789   0.30991   1.000
    H88     H    0.48914   0.61763   0.41762   1.000
    H89     H    0.98928   0.61753   0.41758   1.000
    H90     H    0.43040   0.67900   0.43767   1.000
    H91     H    0.93049   0.67879   0.43758   1.000
    H92     H    0.18656   0.41027   0.22320   1.000
    H93     H    0.68658   0.41022   0.22322   1.000
    H94     H    0.15970   0.48946   0.28638   1.000
    H95     H    0.65976   0.48941   0.28630   1.000
    H96     H    0.07483   0.49839   0.20395   1.000
    H97     H    0.57489   0.49844   0.20395   1.000
    H98     H    0.12537   0.35596   0.10300   1.000
    H99     H    0.62536   0.35598   0.10296   1.000
    H100    H    0.05902   0.40029   0.09152   1.000
    H101    H    0.55902   0.40037   0.09150   1.000
    H102    H    0.10235   0.54548   0.06012   1.000
    H103    H    0.60238   0.54552   0.06007   1.000
    H104    H    0.08943   0.81513   0.43132   1.000
    H105    H    0.58943   0.81509   0.43127   1.000
    C106    C    0.16064   0.46770   0.22497   1.000
    C107    C    0.66069   0.46767   0.22493   1.000
    C108    C    0.10206   0.44260   0.19737   1.000
    C109    C    0.60209   0.44262   0.19735   1.000
    H110    H    0.08754   0.70173   0.41397   1.000
    H111    H    0.58748   0.70169   0.41394   1.000
    H112    H    0.48657   0.81516   0.44011   1.000
    H113    H    0.98655   0.81505   0.44005   1.000
    H114    H    0.08696   0.90147   0.68056   1.000
    H115    H    0.58696   0.90146   0.68050   1.000
    H116    H    0.04686   0.93317   0.55052   1.000
    H117    H    0.54684   0.93317   0.55051   1.000
    H118    H    0.03634   0.04287   0.57847   1.000
    H119    H    0.53634   0.04287   0.57848   1.000
    H120    H    0.21204   0.65946   0.80789   1.000
    H121    H    0.71205   0.65941   0.80791   1.000
    H122    H    0.20754   0.85644   0.78267   1.000
    H123    H    0.70752   0.85638   0.78263   1.000
    H124    H    0.23532   0.78096   0.71587   1.000
    H125    H    0.73531   0.78089   0.71585   1.000
    H126    H    0.30778   0.74248   0.81005   1.000
    H127    H    0.80778   0.74247   0.81004   1.000
    H128    H    0.26030   0.88293   0.91696   1.000
    H129    H    0.76027   0.88292   0.91693   1.000
    H130    H    0.31927   0.82211   0.93729   1.000
    H131    H    0.81925   0.82211   0.93727   1.000
    H132    H    0.06311   0.09032   0.72300   1.000
    H133    H    0.56312   0.09030   0.72301   1.000
    H134    H    0.09015   0.00000   0.78665   1.000
    H135    H    0.59018   0.00000   0.78664   1.000
    H136    H    0.17510   0.00000   0.70400   1.000
    H137    H    0.67511   0.00000   0.70420   1.000
    H138    H    0.12414   0.14452   0.60252   1.000
    H139    H    0.62414   0.14451   0.60248   1.000
    H140    H    0.19067   0.10079   0.59138   1.000
    H141    H    0.69067   0.10077   0.59130   1.000
    H142    H    0.14786   0.95505   0.56090   1.000
    H143    H    0.64785   0.95503   0.56088   1.000
    H144    H    0.16058   0.68488   0.93163   1.000
    H145    H    0.66056   0.68487   0.93163   1.000
    H146    H    0.16228   0.79826   0.91381   1.000
    H147    H    0.66227   0.79824   0.91377   1.000
    H148    H    0.26353   0.68548   0.94021   1.000
    H149    H    0.76351   0.68547   0.94021   1.000
    C150    C    0.31313   0.46045   0.82668   1.000
    C151    C    0.81317   0.46042   0.82666   1.000
    C152    C    0.31337   0.48732   0.91390   1.000
    C153    C    0.81340   0.48732   0.91392   1.000
    C154    C    0.44259   0.22258   0.68385   1.000
    C155    C    0.94254   0.22257   0.68384   1.000
    C156    C    0.47939   0.29448   0.72134   1.000
    C157    C    0.97928   0.29452   0.72135   1.000
    C158    C    0.03589   0.30298   0.67984   1.000
    C159    C    0.53600   0.30280   0.67979   1.000
    C160    C    0.02910   0.31860   0.59171   1.000
    C161    C    0.52919   0.31844   0.59167   1.000
    C162    C    0.33932   0.53234   0.77506   1.000
    C163    C    0.83936   0.53231   0.77502   1.000
    C164    C    0.39791   0.55740   0.80264   1.000
    C165    C    0.89794   0.55742   0.80262   1.000
    C166    C    0.39824   0.58445   0.88978   1.000
    C167    C    0.89825   0.58449   0.88975   1.000
    C168    C    0.37230   0.51279   0.94180   1.000
    C169    C    0.87232   0.51281   0.94184   1.000
    C170    C    0.43541   0.23829   0.59490   1.000
    C171    C    0.93538   0.23828   0.59497   1.000
    C172    C    0.43679   0.03924   0.32613   1.000
    C173    C    0.93680   0.03923   0.32612   1.000
    C174    C    0.43654   0.01277   0.41358   1.000
    C175    C    0.93653   0.01276   0.41357   1.000
    C176    C    0.30756   0.27757   0.18370   1.000
    C177    C    0.80756   0.27751   0.18300   1.000
    C178    C    0.27095   0.20555   0.22156   1.000
    C179    C    0.77094   0.20549   0.22154   1.000
    C180    C    0.21434   0.19670   0.18009   1.000
    C181    C    0.71433   0.19668   0.18008   1.000
    C182    C    0.22117   0.18085   0.09203   1.000
    C183    C    0.72116   0.18084   0.09202   1.000
    C184    C    0.41079   0.96694   0.27491   1.000
    C185    C    0.91081   0.96693   0.27490   1.000
    C186    C    0.35225   0.94154   0.30262   1.000
    C187    C    0.85225   0.94154   0.30259   1.000
    C188    C    0.35200   0.91482   0.38988   1.000
    C189    C    0.85200   0.91481   0.38985   1.000
    C190    C    0.37765   0.98692   0.44100   1.000
    C191    C    0.87764   0.98690   0.44147   1.000
    C192    C    0.31471   0.26170   0.09490   1.000
    C193    C    0.81470   0.26167   0.09488   1.000
    C194    C    0.25823   0.25250   0.05421   1.000
    C195    C    0.75822   0.25248   0.05420   1.000
    C196    C    0.18683   0.53959   0.17334   1.000
    C197    C    0.68688   0.53956   0.17331   1.000
    C198    C    0.18661   0.51269   0.08607   1.000
    C199    C    0.68664   0.51269   0.08600   1.000
    C200    C    0.05747   0.77745   0.31616   1.000
    C201    C    0.55741   0.77743   0.31614   1.000
    C202    C    0.02074   0.70549   0.27864   1.000
    C203    C    0.52062   0.70551   0.27860   1.000
    C204    C    0.46401   0.69717   0.32020   1.000
    C205    C    0.96413   0.69701   0.32014   1.000
    C206    C    0.47082   0.68154   0.40832   1.000
    C207    C    0.97092   0.68140   0.40827   1.000
    C208    C    0.10175   0.41553   0.11024   1.000
    C209    C    0.60175   0.41557   0.11021   1.000
    C210    C    0.12768   0.48720   0.05815   1.000
    C211    C    0.62770   0.48723   0.05812   1.000
    C212    C    0.06462   0.76174   0.40503   1.000
    C213    C    0.56458   0.76173   0.40501   1.000
    C214    C    0.00815   0.75287   0.44577   1.000
    C215    C    0.50813   0.75293   0.44580   1.000
    C216    C    0.06320   0.96078   0.67388   1.000
    C217    C    0.56321   0.96077   0.67387   1.000
    C218    C    0.06347   0.98725   0.58643   1.000
    C219    C    0.56346   0.98724   0.58642   1.000
    C220    C    0.19243   0.72248   0.81631   1.000
    C221    C    0.69243   0.72243   0.81630   1.000
    C222    C    0.22906   0.79451   0.77846   1.000
    C223    C    0.72904   0.79446   0.77844   1.000
    C224    C    0.28566   0.80332   0.81992   1.000
    C225    C    0.78565   0.80330   0.81991   1.000
    C226    C    0.27884   0.81917   0.90798   1.000
    C227    C    0.77882   0.81916   0.90797   1.000
    C228    C    0.08919   0.03308   0.72510   1.000
    C229    C    0.58920   0.03307   0.72509   1.000
    C230    C    0.14774   0.05847   0.69741   1.000
    C231    C    0.64775   0.05848   0.69738   1.000
    C232    C    0.14799   0.08520   0.61015   1.000
    C233    C    0.64799   0.08519   0.61012   1.000
    C234    C    0.12235   0.01311   0.55853   1.000
    C235    C    0.62235   0.01310   0.55851   1.000
    C236    C    0.18530   0.73833   0.90512   1.000
    C237    C    0.68528   0.73831   0.90510   1.000
    C238    C    0.24178   0.74752   0.94580   1.000
    C239    C    0.74176   0.74751   0.94570   1.000
loop_
    _geom_bond_atom_site_label_1
    _geom_bond_atom_site_label_2
    _geom_bond_distance
    _geom_bond_site_symmetry_2
    _ccdc_geom_bond_type
    H75    C199      1.09921      .   S
    H74    C198      1.09950      .   S
    C195   H71       1.10738      .   S
    C195   C183      1.53950      .   S
    C195   C193      1.53362      .   S
    C194   H70       1.10751      .   S
    C194   C182      1.53948      .   S
    C194   C192      1.53366      .   S
    C211   H103      1.10111      .   S
    C211   C199      1.54092      .   S
    C211   C209      1.53333      .   S
    C210   H102      1.10112      .   S
    C210   C198      1.54103      .   S
    C210   C208      1.53333      .   S
    H53    C183      1.09699      .   S
    H52    C182      1.09699      .   S
    H66    C192      1.09821      .   S
    H67    C193      1.09815      .   S
    H79    C199      1.10137      .   S
    H78    C198      1.10144      .   S
    H51    C183      1.10136      .   S
    H50    C182      1.10138      .   S
    C199   C197      1.54494      .   S
    C198   C196      1.54440      .   S
    H69    C193      1.10111      .   S
    H68    C192      1.10111      .   S
    H101   C209      1.09935      .   S
    H100   C208      1.09933      .   S
    C183   C181      1.53058      .   S
    C182   C180      1.53060      .   S
    C193   C177      1.53244      .   S
    C192   C176      1.54392      .   S
    H99    C209      1.10124      .   S
    H98    C208      1.10126      .   S
    C209   C109      1.54289      .   S
    C208   C108      1.54280      .   S
    C197   H73       1.09813      .   S
    C197   C107      1.53364      .   S
    C196   H72       1.09811      .   S
    C196   C106      1.53368      .   S
    C181   H49       1.10452      .   S
    C181   C179      1.54204      .   S
    C180   H48       1.10469      .   S
    C180   C178      1.54204      .   S
    C177   H43       1.10284      .   S
    C177   C179      1.54287      .   S
    C176   H42       1.10100      .   S
    C176   C178      1.53794      .   S
    C109   H97       1.10285      .   S
    C109   C107      1.53029      .   S
    C108   H96       1.10283      .   S
    C108   C106      1.53030      .   S
    H57    C185      1.09958      .   S
    H56    C184      1.09964      .   S
    H84    C202      1.09858      .   S
    H85    C203      1.09772      .   S
    H45    C179      1.10138      .   S
    H44    C178      1.10137      .   S
    C179   H47       1.09859      .   S
    C178   H46       1.09866      .   S
    H92    C106      1.09856      .   S
    H93    C107      1.09851      .   S
    C107   H95       1.09902      .   S
    C106   H94       1.09978      .   S
    C185   H55       1.09854      .   S
    C185   C187      1.53078      .   S
    C185   C173      1.53425  1_565   S
    C184   H54       1.09854      .   S
    C184   C186      1.53078      .   S
    C184   C172      1.53432  1_565   S
    C203   H83       1.10145      .   S
    C203   C201      1.53828      .   S
    C203   C204      1.54262      .   S
    C202   H82       1.10136      .   S
    C202   C200      1.53771      .   S
    C202   C205      1.54198  1_455   S
    H59    C187      1.10299      .   S
    H58    C186      1.10298      .   S
    C187   C189      1.54229      .   S
    C186   C188      1.54221      .   S
    H81    C201      1.10126      .   S
    H80    C200      1.10127      .   S
    H87    C205      1.10470      .   S
    H86    C204      1.10478      .   S
    C201   C213      1.54393      .   S
    C200   C212      1.54389      .   S
    H37    C173      1.09808      .   S
    H36    C172      1.09809      .   S
    C205   C207      1.53026      .   S
    C204   C206      1.53020      .   S
    C173   C175      1.54434      .   S
    C172   C174      1.54436      .   S
    C189   H61       1.10128      .   S
    C189   H63       1.09922      .   S
    C189   C191      1.53260      .   S
    C188   H60       1.10128      .   S
    C188   H62       1.09924      .   S
    C188   C190      1.52786      .   S
    C213   H111      1.10111      .   S
    C213   H105      1.09818      .   S
    C213   C215      1.53347      .   S
    C212   H110      1.10112      .   S
    C212   H104      1.09821      .   S
    C212   C214      1.53346      .   S
    C207   H89       1.10134      .   S
    C207   H91       1.09698      .   S
    C207   C214      1.53912  1_655   S
    C206   H88       1.10140      .   S
    C206   H90       1.09694      .   S
    C206   C215      1.53918      .   S
    C175   H41       1.10148  1_545   S
    C175   C191      1.54099  1_545   S
    C175   H39       1.09950      .   S
    C174   H40       1.10148  1_545   S
    C174   C190      1.53840  1_545   S
    C174   H38       1.09951      .   S
    H65    C191      1.10110  1_545   S
    H64    C190      1.10082  1_545   S
    H113   C214      1.10743  1_655   S
    H112   C215      1.10747      .   S
    H117   C219      1.09949      .   S
    H116   C218      1.09949      .   S
    C76    H35       1.10737      .   S
    C76    C161      1.53917      .   S
    C76    C170      1.53284      .   S
    C77    H34       1.10736  1_655   S
    C77    C160      1.53912  1_655   S
    C77    C171      1.53346      .   S
    C235   H143      1.10110  1_545   S
    C235   C219      1.54097  1_545   S
    C235   C233      1.53263      .   S
    C234   H142      1.10108  1_545   S
    C234   C218      1.54097  1_545   S
    C234   C232      1.53262      .   S
    H17    C161      1.09690      .   S
    H16    C160      1.09697      .   S
    H31    C171      1.09823      .   S
    H30    C170      1.09763      .   S
    H118   C218      1.10149  1_545   S
    H119   C219      1.10145  1_545   S
    H15    C161      1.10139      .   S
    H14    C160      1.10136      .   S
    H33    C171      1.10113      .   S
    H32    C170      1.10092      .   S
    C219   C217      1.54437      .   S
    C218   C216      1.54434      .   S
    H141   C233      1.09946      .   S
    H140   C232      1.09925      .   S
    C161   C159      1.53023      .   S
    C160   C158      1.53030      .   S
    C170   C154      1.54530      .   S
    C171   C155      1.54391      .   S
    H139   C233      1.10128      .   S
    H138   C232      1.10127      .   S
    C233   C231      1.54221      .   S
    C232   C230      1.54229      .   S
    C217   H115      1.09804      .   S
    C217   C229      1.53432  1_565   S
    C216   H114      1.09811      .   S
    C216   C228      1.53428  1_565   S
    C159   H13       1.10461      .   S
    C159   C156      1.54221      .   S
    C158   H12       1.10456      .   S
    C158   C157      1.54200  1_455   S
    C155   H7        1.10124      .   S
    C155   C157      1.53774      .   S
    C154   H6        1.10128      .   S
    C154   C156      1.53795      .   S
    C231   H137      1.13822      .   S
    C231   C229      1.53081      .   S
    C230   H136      1.13757      .   S
    C230   C228      1.53077      .   S
    H21    C163      1.09962      .   S
    H20    C162      1.09966      .   S
    H125   C223      1.09865      .   S
    H124   C222      1.09857      .   S
    H8     C156      1.10139      .   S
    H9     C157      1.10136      .   S
    C156   H10       1.09855      .   S
    C157   H11       1.09857      .   S
    H132   C228      1.09854      .   S
    H133   C229      1.09854      .   S
    C229   H135      1.16563      .   S
    C228   H134      1.16569      .   S
    C163   H19       1.09852      .   S
    C163   C165      1.53028      .   S
    C163   C151      1.53377      .   S
    C162   H18       1.09850      .   S
    C162   C164      1.53027      .   S
    C162   C150      1.53366      .   S
    C223   H123      1.10137      .   S
    C223   C221      1.53793      .   S
    C223   C225      1.54206      .   S
    C222   H122      1.10137      .   S
    C222   C220      1.53790      .   S
    C222   C224      1.54202      .   S
    H22    C164      1.10284      .   S
    H23    C165      1.10283      .   S
    C165   C167      1.54282      .   S
    C164   C166      1.54292      .   S
    H120   C220      1.10123      .   S
    H121   C221      1.10121      .   S
    H127   C225      1.10470      .   S
    H126   C224      1.10467      .   S
    C221   C237      1.54393      .   S
    C220   C236      1.54398      .   S
    C225   C227      1.53062      .   S
    C224   C226      1.53058      .   S
    H1     C151      1.09810      .   S
    H0     C150      1.09809      .   S
    C151   C153      1.54426      .   S
    C150   C152      1.54349      .   S
    C167   H25       1.10125      .   S
    C167   H27       1.09938      .   S
    C167   C169      1.53332      .   S
    C166   H24       1.10124      .   S
    C166   H26       1.09938      .   S
    C166   C168      1.53264      .   S
    C237   H147      1.10114      .   S
    C237   H145      1.09819      .   S
    C237   C239      1.53300      .   S
    C236   H146      1.10111      .   S
    C236   H144      1.09814      .   S
    C236   C238      1.53364      .   S
    C227   H129      1.10134      .   S
    C227   H131      1.09692      .   S
    C227   C239      1.53883      .   S
    C226   H128      1.10139      .   S
    C226   H130      1.09699      .   S
    C226   C238      1.53949      .   S
    C152   H4        1.10142      .   S
    C152   C168      1.54100      .   S
    C152   H2        1.10007      .   S
    C153   H5        1.10144      .   S
    C153   C169      1.54103      .   S
    C153   H3        1.09949      .   S
    H29    C169      1.10111      .   S
    H28    C168      1.10107      .   S
    H149   C239      1.10736      .   S
    H148   C238      1.10750      .   S
