# CIF file generated by openbabel 2.4.90, see http://openbabel.sf.net
data_I
_chemical_name_common ''
_cell_length_a 24.165
_cell_length_b 15.381
_cell_length_c 17.043
_cell_angle_alpha 89.908
_cell_angle_beta 90.006
_cell_angle_gamma 91.729
_space_group_name_H-M_alt 'P 1'
_space_group_name_Hall 'P 1'
loop_
    _symmetry_equiv_pos_as_xyz
    x,y,z
loop_
    _atom_site_label
    _atom_site_type_symbol
    _atom_site_fract_x
    _atom_site_fract_y
    _atom_site_fract_z
    _atom_site_occupancy
    Cd0     Cd   0.65646   0.29779   0.85583   1.000
    Cd1     Cd   0.28657   0.22687   0.80502   1.000
    Cd2     Cd   0.78655   0.22686   0.80503   1.000
    Cd3     Cd   0.37916   0.00000   0.70860   1.000
    Cd4     Cd   0.87915   0.00000   0.70860   1.000
    Cd5     Cd   0.09342   0.20238   0.35552   1.000
    Cd6     Cd   0.59342   0.20238   0.35550   1.000
    Cd7     Cd   0.46346   0.27347   0.30518   1.000
    Cd8     Cd   0.96344   0.27345   0.30519   1.000
    Cd9     Cd   0.37064   0.49246   0.20946   1.000
    Cd10    Cd   0.87076   0.49233   0.20936   1.000
    Cd11    Cd   0.34355   0.70223   0.14418   1.000
    Cd12    Cd   0.84354   0.70226   0.14418   1.000
    Cd13    Cd   0.21346   0.77314   0.19497   1.000
    Cd14    Cd   0.71344   0.77314   0.19498   1.000
    Cd15    Cd   0.12084   0.99195   0.29140   1.000
    Cd16    Cd   0.62084   0.99192   0.29138   1.000
    Cd17    Cd   0.40658   0.79763   0.64449   1.000
    Cd18    Cd   0.90658   0.79763   0.64448   1.000
    Cd19    Cd   0.03656   0.72655   0.69481   1.000
    Cd20    Cd   0.53655   0.72653   0.69481   1.000
    Cd21    Cd   0.12926   0.50765   0.79062   1.000
    Cd22    Cd   0.62937   0.50752   0.79050   1.000
    Cd23    Cd   0.15646   0.29776   0.85582   1.000
    C24     C    0.57075   0.37357   0.71991   1.000
    C25     C    0.48685   0.26101   0.46592   1.000
    C26     C    0.07565   0.36804   0.24520   1.000
    C27     C    0.25327   0.43995   0.80395   1.000
    C28     C    0.75331   0.43994   0.80394   1.000
    C29     C    0.38644   0.21862   0.72380   1.000
    C30     C    0.88639   0.21858   0.72383   1.000
    C31     C    0.42435   0.63193   0.75475   1.000
    C32     C    0.92436   0.63197   0.75474   1.000
    C33     C    0.36900   0.54049   0.02793   1.000
    C34     C    0.86901   0.54048   0.02790   1.000
    C35     C    0.07045   0.37391   0.72002   1.000
    O36     O    0.60413   0.11817   0.45900   1.000
    O37     O    0.12928   0.98235   0.42182   1.000
    O38     O    0.62927   0.98234   0.42179   1.000
    O39     O    0.33354   0.86293   0.70640   1.000
    O40     O    0.83353   0.86292   0.70639   1.000
    O41     O    0.33338   0.94435   0.81411   1.000
    O42     O    0.83337   0.94434   0.81411   1.000
    O43     O    0.28049   0.78216   0.07345   1.000
    C44     C    0.98686   0.26104   0.46593   1.000
    C45     C    0.99670   0.06000   0.30368   1.000
    C46     C    0.49670   0.06000   0.30367   1.000
    C47     C    0.36368   0.28171   0.22370   1.000
    C48     C    0.86368   0.28160   0.22377   1.000
    C49     C    0.32589   0.86665   0.25528   1.000
    C50     C    0.82589   0.86668   0.25523   1.000
    C51     C    0.38101   0.95959   0.52767   1.000
    C52     C    0.88100   0.95957   0.52765   1.000
    C53     C    0.17994   0.12580   0.22078   1.000
    C54     C    0.67992   0.12578   0.22077   1.000
    C55     C    0.26318   0.23866   0.96593   1.000
    C56     C    0.76317   0.23866   0.96592   1.000
    C57     C    0.24669   0.56006   0.19606   1.000
    C58     C    0.74674   0.56005   0.19604   1.000
    C59     C    0.11362   0.78144   0.27617   1.000
    C60     C    0.61357   0.78139   0.27615   1.000
    C61     C    0.57565   0.36808   0.24524   1.000
    C62     C    0.13099   0.45953   0.97209   1.000
    C63     C    0.63101   0.45952   0.97206   1.000
    C64     C    0.42928   0.62638   0.28008   1.000
    C65     C    0.92961   0.62603   0.27996   1.000
    C66     C    0.01314   0.73896   0.53406   1.000
    C67     C    0.51314   0.73898   0.53408   1.000
    C68     C    0.50331   0.94000   0.69633   1.000
    C69     C    0.00000   0.94000   0.69632   1.000
    C70     C    0.13631   0.71838   0.77624   1.000
    C71     C    0.63631   0.71828   0.77622   1.000
    C72     C    0.17411   0.13334   0.74477   1.000
    C73     C    0.67411   0.13336   0.74470   1.000
    C74     C    0.11900   0.04044   0.47235   1.000
    C75     C    0.61899   0.04042   0.47233   1.000
    C76     C    0.32007   0.87422   0.77922   1.000
    C77     C    0.82006   0.87420   0.77921   1.000
    C78     C    0.23683   0.76135   0.03408   1.000
    C79     C    0.73681   0.76135   0.03407   1.000
    O80     O    0.23621   0.35973   0.79986   1.000
    O81     O    0.73622   0.35974   0.79986   1.000
    O82     O    0.36141   0.28828   0.73670   1.000
    O83     O    0.86137   0.28824   0.73670   1.000
    O84     O    0.36379   0.14513   0.74608   1.000
    O85     O    0.86376   0.14509   0.74608   1.000
    O86     O    0.22224   0.50379   0.79350   1.000
    O87     O    0.72230   0.50381   0.79351   1.000
    O88     O    0.39142   0.68266   0.72005   1.000
    O89     O    0.89142   0.68267   0.72003   1.000
    O90     O    0.47700   0.63800   0.75673   1.000
    O91     O    0.97700   0.63810   0.75675   1.000
    O92     O    0.35417   0.61834   0.04027   1.000
    O93     O    0.85418   0.61832   0.04028   1.000
    O94     O    0.37930   0.48272   0.07889   1.000
    O95     O    0.87932   0.48266   0.07882   1.000
    O96     O    0.08352   0.36319   0.79315   1.000
    O97     O    0.58343   0.36314   0.79322   1.000
    O98     O    0.08430   0.44345   0.68437   1.000
    O99     O    0.58517   0.44268   0.68400   1.000
    O100    O    0.03051   0.28187   0.42651   1.000
    O101    O    0.53050   0.28186   0.42648   1.000
    O102    O    0.43962   0.25192   0.43327   1.000
    O103    O    0.93963   0.25192   0.43327   1.000
    O104    O    0.01369   0.14029   0.29970   1.000
    O105    O    0.51369   0.14029   0.29974   1.000
    O106    O    0.38883   0.21210   0.23658   1.000
    O107    O    0.88882   0.21199   0.23657   1.000
    O108    O    0.38620   0.35515   0.24616   1.000
    O109    O    0.88620   0.35504   0.24616   1.000
    O110    O    0.02783   0.99628   0.29339   1.000
    O111    O    0.52782   0.99629   0.29339   1.000
    O112    O    0.35883   0.81709   0.21940   1.000
    O113    O    0.85884   0.81716   0.21932   1.000
    O114    O    0.27333   0.85904   0.25890   1.000
    O115    O    0.77333   0.85903   0.25891   1.000
    O116    O    0.39587   0.88184   0.54050   1.000
    O117    O    0.89586   0.88182   0.54040   1.000
    O118    O    0.37073   0.01766   0.57821   1.000
    O119    O    0.87072   0.01765   0.57819   1.000
    O120    O    0.16647   0.13707   0.29360   1.000
    O121    O    0.66646   0.13706   0.29300   1.000
    O122    O    0.16663   0.05566   0.18589   1.000
    O123    O    0.66663   0.05564   0.18588   1.000
    O124    O    0.21952   0.21785   0.92656   1.000
    O125    O    0.71951   0.21784   0.92655   1.000
    O126    O    0.31038   0.24795   0.93321   1.000
    O127    O    0.81037   0.24795   0.93321   1.000
    O128    O    0.26379   0.64026   0.20013   1.000
    O129    O    0.76380   0.64027   0.20014   1.000
    O130    O    0.13864   0.71177   0.26330   1.000
    O131    O    0.63859   0.71173   0.26328   1.000
    O132    O    0.13625   0.85492   0.25390   1.000
    O133    O    0.63622   0.85487   0.25392   1.000
    O134    O    0.27770   0.49619   0.20649   1.000
    O135    O    0.77777   0.49621   0.20650   1.000
    O136    O    0.10859   0.31735   0.27998   1.000
    O137    O    0.60858   0.31736   0.27995   1.000
    O138    O    0.02300   0.36190   0.24324   1.000
    O139    O    0.52300   0.36201   0.24327   1.000
    O140    O    0.14582   0.38168   0.95972   1.000
    O141    O    0.64583   0.38166   0.95973   1.000
    O142    O    0.12069   0.51734   0.92110   1.000
    O143    O    0.62070   0.51728   0.92109   1.000
    O144    O    0.41656   0.63685   0.20678   1.000
    O145    O    0.91646   0.63680   0.20686   1.000
    O146    O    0.41491   0.55723   0.31596   1.000
    O147    O    0.91589   0.55640   0.31555   1.000
    O148    O    0.46950   0.71814   0.57351   1.000
    O149    O    0.96949   0.71813   0.57348   1.000
    O150    O    0.06037   0.74807   0.56672   1.000
    O151    O    0.56037   0.74808   0.56672   1.000
    O152    O    0.48631   0.85971   0.70026   1.000
    O153    O    0.98632   0.85971   0.70025   1.000
    O154    O    0.11118   0.78800   0.76342   1.000
    O155    O    0.61117   0.78788   0.76341   1.000
    O156    O    0.11380   0.64494   0.75384   1.000
    O157    O    0.61380   0.64483   0.75384   1.000
    O158    O    0.47217   0.00000   0.70661   1.000
    O159    O    0.97217   0.00000   0.70661   1.000
    O160    O    0.14116   0.18288   0.78066   1.000
    O161    O    0.64117   0.18294   0.78059   1.000
    O162    O    0.22667   0.14095   0.74112   1.000
    O163    O    0.72667   0.14095   0.74110   1.000
    O164    O    0.10414   0.11819   0.45951   1.000
    O165    O    0.78048   0.78216   0.07340   1.000
    O166    O    0.18963   0.75205   0.06680   1.000
    O167    O    0.68962   0.75205   0.06600   1.000
loop_
    _geom_bond_atom_site_label_1
    _geom_bond_atom_site_label_2
    _geom_bond_distance
    _geom_bond_site_symmetry_2
    _ccdc_geom_bond_type
    C34    O93       1.27797      .   S
    C34    O95       1.27152      .   S
    C33    O92       1.27800      .   S
    C33    O94       1.27150      .   S
    C79    O167      1.26781      .   S
    C79    O165      1.28266      .   S
    C78    O166      1.27372      .   S
    C78    O43       1.28299      .   S
    O92    Cd11      2.21228      .   S
    O93    Cd12      2.21266      .   S
    O167   Cd14      2.29333      .   S
    O166   Cd13      2.28020      .   S
    O165   Cd12      2.32280      .   S
    O43    Cd11      2.32259      .   S
    O95    Cd10      2.23999      .   S
    O94    Cd9       2.24083      .   S
    Cd12   O129      2.32763      .   S
    Cd12   O145      2.31587      .   S
    Cd12   O113      2.20633      .   S
    Cd11   O128      2.32785      .   S
    Cd11   O144      2.31645      .   S
    Cd11   O112      2.20653      .   S
    O123   C54       1.26563      .   S
    O123   Cd16      2.31237  1_545   S
    O122   C53       1.26558      .   S
    O122   Cd15      2.31248  1_545   S
    Cd13   O114      2.21692      .   S
    Cd13   O130      2.32603      .   S
    Cd14   O115      2.21734      .   S
    Cd14   O131      2.32645      .   S
    C58    O129      1.29105      .   S
    C58    O135      1.26573      .   S
    C57    O128      1.29101      .   S
    C57    O134      1.26570      .   S
    O134   Cd9       2.24873      .   S
    O135   Cd10      2.25022      .   S
    O144   C64       1.29739      .   S
    O145   C65       1.29733      .   S
    Cd10   O109      2.24386      .   S
    Cd10   O147      2.31869      .   S
    Cd9    O108      2.24421      .   S
    Cd9    O146      2.31791      .   S
    O113   C50       1.27543      .   S
    O112   C49       1.27548      .   S
    C54    O121      1.28669      .   S
    C53    O120      1.29634      .   S
    C47    O106      1.26579      .   S
    C47    O108      1.29727      .   S
    C48    O107      1.26554      .   S
    C48    O109      1.29689      .   S
    O107   Cd8       2.32659      .   S
    O106   Cd7       2.32599      .   S
    O138   C26       1.27333      .   S
    O138   Cd8       2.21690  1_455   S
    O139   C61       1.27339      .   S
    O139   Cd7       2.21715      .   S
    C26    O136      1.27619      .   S
    C61    O137      1.27573      .   S
    O132   C59       1.29696      .   S
    O132   Cd15      2.24524      .   S
    O133   C60       1.29697      .   S
    O133   Cd16      2.24518      .   S
    C50    O115      1.27355      .   S
    C49    O114      1.27349      .   S
    O131   C60       1.26555      .   S
    O130   C59       1.26555      .   S
    O137   Cd6       2.20757      .   S
    C65    O147      1.26541      .   S
    O136   Cd5       2.20744      .   S
    C64    O146      1.26545      .   S
    Cd16   O111      2.25095      .   S
    Cd16   O38       2.23691      .   S
    Cd15   O110      2.25097      .   S
    Cd15   O37       2.23710      .   S
    O121   Cd6       2.31721      .   S
    O111   C46       1.26574  1_565   S
    O110   C45       1.26576  1_465   S
    O120   Cd5       2.31289      .   S
    O104   C45       1.29127  1_455   S
    O104   Cd5       2.32822      .   S
    O105   C46       1.29123      .   S
    O105   Cd6       2.32792      .   S
    Cd7    O102      2.27896      .   S
    Cd8    O103      2.27859      .   S
    Cd6    O101      2.32101      .   S
    Cd6    O36       2.20657      .   S
    Cd5    O100      2.32099      .   S
    Cd5    O164      2.21314      .   S
    O38    C75       1.27184  1_565   S
    O37    C74       1.27174  1_565   S
    O101   C25       1.28305      .   S
    O100   C44       1.28279  1_455   S
    O103   C44       1.27371      .   S
    O102   C25       1.27369      .   S
    O36    C75       1.27896      .   S
    O164   C74       1.27751      .   S
    C52    O117      1.27727      .   S
    C52    O119      1.27184  1_565   S
    C51    O116      1.27753      .   S
    C51    O118      1.27180  1_565   S
    C66    O150      1.27372      .   S
    C66    O149      1.28283  1_455   S
    C67    O151      1.27363      .   S
    C67    O148      1.28292      .   S
    O117   Cd18      2.21433      .   S
    O116   Cd17      2.21321      .   S
    O150   Cd19      2.27870      .   S
    O151   Cd20      2.27892      .   S
    O149   Cd18      2.32111      .   S
    O148   Cd17      2.32104      .   S
    O119   Cd4       2.24864      .   S
    O118   Cd3       2.24834      .   S
    Cd18   O153      2.32783      .   S
    Cd18   O40       2.31277      .   S
    Cd18   O89       2.20742      .   S
    Cd17   O152      2.32793      .   S
    Cd17   O39       2.31254      .   S
    Cd17   O88       2.20751      .   S
    O99    C24       1.26548      .   S
    O99    Cd22      2.31762      .   S
    O98    C35       1.26550      .   S
    O98    Cd21      2.31843      .   S
    Cd20   O90       2.21718      .   S
    Cd20   O155      2.32582      .   S
    Cd19   O91       2.21684  1_455   S
    Cd19   O154      2.32635      .   S
    C69    O153      1.27046  1_455   S
    C69    O159      1.17162  1_465   S
    C68    O152      1.29124      .   S
    C68    O158      1.22103  1_565   S
    O40    C77       1.29637      .   S
    O39    C76       1.29638      .   S
    O158   Cd3       2.24787      .   S
    O159   Cd4       2.24794      .   S
    Cd4    O85       2.36250      .   S
    Cd4    O42       2.26478  1_545   S
    Cd3    O84       2.36301      .   S
    Cd3    O41       2.26463  1_545   S
    C24    O97       1.29726      .   S
    C35    O96       1.29723      .   S
    O89    C32       1.27569      .   S
    O88    C31       1.27573      .   S
    C29    O82       1.26564      .   S
    C29    O84       1.29723      .   S
    C30    O83       1.26552      .   S
    C30    O85       1.29688      .   S
    O82    Cd1       2.32660      .   S
    O83    Cd2       2.32609      .   S
    O163   C73       1.27345      .   S
    O163   Cd2       2.21715      .   S
    O162   C72       1.27350      .   S
    O162   Cd1       2.21730      .   S
    C73    O161      1.27573      .   S
    C72    O160      1.27547      .   S
    O157   C71       1.29685      .   S
    O157   Cd22      2.24413      .   S
    O156   C70       1.29687      .   S
    O156   Cd21      2.24391      .   S
    C32    O91       1.27335      .   S
    C31    O90       1.27341      .   S
    O155   C71       1.26558      .   S
    O154   C70       1.26555      .   S
    C77    O42       1.26566      .   S
    C76    O41       1.26560      .   S
    O161   Cd0       2.20652      .   S
    O160   Cd23      2.20628      .   S
    Cd22   O87       2.24863      .   S
    Cd22   O143      2.24121      .   S
    Cd21   O86       2.24989      .   S
    Cd21   O142      2.23904      .   S
    O96    Cd23      2.31598      .   S
    O97    Cd0       2.31656      .   S
    O86    C27       1.26570      .   S
    O87    C28       1.26569      .   S
    O81    C28       1.29101      .   S
    O81    Cd0       2.32799      .   S
    O80    C27       1.29104      .   S
    O80    Cd23      2.32765      .   S
    Cd1    O126      2.28038      .   S
    Cd2    O127      2.28030      .   S
    Cd23   O124      2.32250      .   S
    Cd23   O140      2.21255      .   S
    Cd0    O125      2.32254      .   S
    Cd0    O141      2.21210      .   S
    O143   C63       1.27151      .   S
    O142   C62       1.27224      .   S
    O125   C56       1.28299      .   S
    O124   C55       1.28300      .   S
    O126   C55       1.27370      .   S
    O127   C56       1.27367      .   S
    O140   C62       1.27797      .   S
    O141   C63       1.27802      .   S
    O80    Cd1       2.41136      .   S
    O81    Cd2       2.41114      .   S
    O84    Cd1       2.49348      .   S
    O85    Cd2       2.49366      .   S
    O96    Cd21      2.45203      .   S
    O97    Cd22      2.45308      .   S
    O104   Cd8       2.41434  1_455   S
    O105   Cd7       2.41430      .   S
    O108   Cd7       2.49242      .   S
    O109   Cd8       2.49143      .   S
    O120   Cd15      2.45984  1_545   S
    O121   Cd16      2.45999  1_545   S
    O128   Cd13      2.41117      .   S
    O129   Cd14      2.41144      .   S
    O132   Cd13      2.49353      .   S
    O133   Cd14      2.49351      .   S
    O144   Cd9       2.45292      .   S
    O145   Cd10      2.45169      .   S
    O152   Cd20      2.41423      .   S
    O153   Cd19      2.41422  1_655   S
    O156   Cd19      2.49160      .   S
    O157   Cd20      2.49264      .   S
    O39    Cd3       2.34983  1_565   S
    O40    Cd4       2.34995  1_565   S
