# CIF file generated by openbabel 2.4.90, see http://openbabel.sf.net
data_I
_chemical_name_common ''
_cell_length_a 24.165
_cell_length_b 15.381
_cell_length_c 17.043
_cell_angle_alpha 89.908
_cell_angle_beta 90.006
_cell_angle_gamma 91.729
_space_group_name_H-M_alt 'P 1'
_space_group_name_Hall 'P 1'
loop_
    _symmetry_equiv_pos_as_xyz
    x,y,z
loop_
    _atom_site_label
    _atom_site_type_symbol
    _atom_site_fract_x
    _atom_site_fract_y
    _atom_site_fract_z
    _atom_site_occupancy
    C0      C    0.57075   0.37357   0.71991   1.000
    C1      C    0.48685   0.26101   0.46592   1.000
    C2      C    0.07565   0.36804   0.24520   1.000
    C3      C    0.25327   0.43995   0.80395   1.000
    C4      C    0.75331   0.43994   0.80394   1.000
    C5      C    0.38644   0.21862   0.72380   1.000
    C6      C    0.88639   0.21858   0.72383   1.000
    C7      C    0.42435   0.63193   0.75475   1.000
    C8      C    0.92436   0.63197   0.75474   1.000
    C9      C    0.36900   0.54049   0.02793   1.000
    C10     C    0.86901   0.54048   0.02790   1.000
    C11     C    0.07045   0.37391   0.72002   1.000
    C12     C    0.98686   0.26104   0.46593   1.000
    C13     C    0.99670   0.06000   0.30368   1.000
    C14     C    0.49670   0.06000   0.30367   1.000
    C15     C    0.36368   0.28171   0.22370   1.000
    C16     C    0.86368   0.28160   0.22377   1.000
    C17     C    0.32589   0.86665   0.25528   1.000
    C18     C    0.82589   0.86668   0.25523   1.000
    C19     C    0.38101   0.95959   0.52767   1.000
    C20     C    0.88100   0.95957   0.52765   1.000
    C21     C    0.17994   0.12580   0.22078   1.000
    C22     C    0.67992   0.12578   0.22077   1.000
    C23     C    0.26318   0.23866   0.96593   1.000
    C24     C    0.76317   0.23866   0.96592   1.000
    C25     C    0.24669   0.56006   0.19606   1.000
    C26     C    0.74674   0.56005   0.19604   1.000
    C27     C    0.11362   0.78144   0.27617   1.000
    C28     C    0.61357   0.78139   0.27615   1.000
    C29     C    0.57565   0.36808   0.24524   1.000
    C30     C    0.13099   0.45953   0.97209   1.000
    C31     C    0.63101   0.45952   0.97206   1.000
    C32     C    0.42928   0.62638   0.28008   1.000
    C33     C    0.92961   0.62603   0.27996   1.000
    C34     C    0.01314   0.73896   0.53406   1.000
    C35     C    0.51314   0.73898   0.53408   1.000
    C36     C    0.50331   0.94000   0.69633   1.000
    C37     C    0.00000   0.94000   0.69632   1.000
    C38     C    0.13631   0.71838   0.77624   1.000
    C39     C    0.63631   0.71828   0.77622   1.000
    C40     C    0.17411   0.13334   0.74477   1.000
    C41     C    0.67411   0.13336   0.74470   1.000
    C42     C    0.11900   0.04044   0.47235   1.000
    C43     C    0.61899   0.04042   0.47233   1.000
    C44     C    0.32007   0.87422   0.77922   1.000
    C45     C    0.82006   0.87420   0.77921   1.000
    C46     C    0.23683   0.76135   0.03408   1.000
    C47     C    0.73681   0.76135   0.03407   1.000
