# CIF file generated by openbabel 2.4.90, see http://openbabel.sf.net
data_I
_chemical_name_common ''
_cell_length_a 24.165
_cell_length_b 15.381
_cell_length_c 17.043
_cell_angle_alpha 89.908
_cell_angle_beta 90.006
_cell_angle_gamma 91.729
_space_group_name_H-M_alt 'P 1'
_space_group_name_Hall 'P 1'
loop_
    _symmetry_equiv_pos_as_xyz
    x,y,z
loop_
    _atom_site_label
    _atom_site_type_symbol
    _atom_site_fract_x
    _atom_site_fract_y
    _atom_site_fract_z
    _atom_site_occupancy
    Zr0     Zr   0.15646   0.29776   0.85582   1.000
    Zr1     Zr   0.65646   0.29779   0.85583   1.000
    Zr2     Zr   0.28657   0.22687   0.80502   1.000
    Zr3     Zr   0.78655   0.22686   0.80503   1.000
    Zr4     Zr   0.37916   0.00000   0.70860   1.000
    Zr5     Zr   0.87915   0.00000   0.70860   1.000
    Zr6     Zr   0.09342   0.20238   0.35552   1.000
    Zr7     Zr   0.59342   0.20238   0.35550   1.000
    Zr8     Zr   0.46346   0.27347   0.30518   1.000
    Zr9     Zr   0.96344   0.27345   0.30519   1.000
    Zr10    Zr   0.37064   0.49246   0.20946   1.000
    Zr11    Zr   0.87076   0.49233   0.20936   1.000
    Zr12    Zr   0.34355   0.70223   0.14418   1.000
    Zr13    Zr   0.84354   0.70226   0.14418   1.000
    Zr14    Zr   0.21346   0.77314   0.19497   1.000
    Zr15    Zr   0.71344   0.77314   0.19498   1.000
    Zr16    Zr   0.12084   0.99195   0.29140   1.000
    Zr17    Zr   0.62084   0.99192   0.29138   1.000
    Zr18    Zr   0.40658   0.79763   0.64449   1.000
    Zr19    Zr   0.90658   0.79763   0.64448   1.000
    Zr20    Zr   0.03656   0.72655   0.69481   1.000
    Zr21    Zr   0.53655   0.72653   0.69481   1.000
    Zr22    Zr   0.12926   0.50765   0.79062   1.000
    Zr23    Zr   0.62937   0.50752   0.79050   1.000
    Zr24    Zr   0.25327   0.43995   0.80395   1.000
    Zr25    Zr   0.75331   0.43994   0.80394   1.000
    Zr26    Zr   0.38644   0.21862   0.72380   1.000
    Zr27    Zr   0.88639   0.21858   0.72383   1.000
    Zr28    Zr   0.42435   0.63193   0.75475   1.000
    Zr29    Zr   0.92436   0.63197   0.75474   1.000
    Zr30    Zr   0.36900   0.54049   0.02793   1.000
    Zr31    Zr   0.86901   0.54048   0.02790   1.000
    Zr32    Zr   0.07045   0.37391   0.72002   1.000
    Zr33    Zr   0.57075   0.37357   0.71991   1.000
    Zr34    Zr   0.48685   0.26101   0.46592   1.000
    Zr35    Zr   0.98686   0.26104   0.46593   1.000
    Zr36    Zr   0.99670   0.06000   0.30368   1.000
    Zr37    Zr   0.49670   0.06000   0.30367   1.000
    Zr38    Zr   0.36368   0.28171   0.22370   1.000
    Zr39    Zr   0.86368   0.28160   0.22377   1.000
    Zr40    Zr   0.32589   0.86665   0.25528   1.000
    Zr41    Zr   0.82589   0.86668   0.25523   1.000
    Zr42    Zr   0.38101   0.95959   0.52767   1.000
    Zr43    Zr   0.88100   0.95957   0.52765   1.000
    Zr44    Zr   0.17994   0.12580   0.22078   1.000
    Zr45    Zr   0.67992   0.12578   0.22077   1.000
    Zr46    Zr   0.26318   0.23866   0.96593   1.000
    Zr47    Zr   0.76317   0.23866   0.96592   1.000
    Zr48    Zr   0.24669   0.56006   0.19606   1.000
    Zr49    Zr   0.74674   0.56005   0.19604   1.000
    Zr50    Zr   0.11362   0.78144   0.27617   1.000
    Zr51    Zr   0.61357   0.78139   0.27615   1.000
    Zr52    Zr   0.07565   0.36804   0.24520   1.000
    Zr53    Zr   0.57565   0.36808   0.24524   1.000
    Zr54    Zr   0.13099   0.45953   0.97209   1.000
    Zr55    Zr   0.63101   0.45952   0.97206   1.000
    Zr56    Zr   0.42928   0.62638   0.28008   1.000
    Zr57    Zr   0.92961   0.62603   0.27996   1.000
    Zr58    Zr   0.01314   0.73896   0.53406   1.000
    Zr59    Zr   0.51314   0.73898   0.53408   1.000
    Zr60    Zr   0.50331   0.94000   0.69633   1.000
    Zr61    Zr   0.00000   0.94000   0.69632   1.000
    Zr62    Zr   0.13631   0.71838   0.77624   1.000
    Zr63    Zr   0.63631   0.71828   0.77622   1.000
    Zr64    Zr   0.17411   0.13334   0.74477   1.000
    Zr65    Zr   0.67411   0.13336   0.74470   1.000
    Zr66    Zr   0.11900   0.04044   0.47235   1.000
    Zr67    Zr   0.61899   0.04042   0.47233   1.000
    Zr68    Zr   0.32007   0.87422   0.77922   1.000
    Zr69    Zr   0.82006   0.87420   0.77921   1.000
    Zr70    Zr   0.23683   0.76135   0.03408   1.000
    Zr71    Zr   0.73681   0.76135   0.03407   1.000
    Zr72    Zr   0.23621   0.35973   0.79986   1.000
    Zr73    Zr   0.73622   0.35974   0.79986   1.000
    Zr74    Zr   0.36141   0.28828   0.73670   1.000
    Zr75    Zr   0.86137   0.28824   0.73670   1.000
    Zr76    Zr   0.36379   0.14513   0.74608   1.000
    Zr77    Zr   0.86376   0.14509   0.74608   1.000
    Zr78    Zr   0.22224   0.50379   0.79350   1.000
    Zr79    Zr   0.72230   0.50381   0.79351   1.000
    Zr80    Zr   0.39142   0.68266   0.72005   1.000
    Zr81    Zr   0.89142   0.68267   0.72003   1.000
    Zr82    Zr   0.47700   0.63800   0.75673   1.000
    Zr83    Zr   0.97700   0.63810   0.75675   1.000
    Zr84    Zr   0.35417   0.61834   0.04027   1.000
    Zr85    Zr   0.85418   0.61832   0.04028   1.000
    Zr86    Zr   0.37930   0.48272   0.07889   1.000
    Zr87    Zr   0.87932   0.48266   0.07882   1.000
    Zr88    Zr   0.08352   0.36319   0.79315   1.000
    Zr89    Zr   0.58343   0.36314   0.79322   1.000
    Zr90    Zr   0.08430   0.44345   0.68437   1.000
    Zr91    Zr   0.58517   0.44268   0.68400   1.000
    Zr92    Zr   0.03051   0.28187   0.42651   1.000
    Zr93    Zr   0.53050   0.28186   0.42648   1.000
    Zr94    Zr   0.43962   0.25192   0.43327   1.000
    Zr95    Zr   0.93963   0.25192   0.43327   1.000
    Zr96    Zr   0.01369   0.14029   0.29970   1.000
    Zr97    Zr   0.51369   0.14029   0.29974   1.000
    Zr98    Zr   0.38883   0.21210   0.23658   1.000
    Zr99    Zr   0.88882   0.21199   0.23657   1.000
    Zr100   Zr   0.38620   0.35515   0.24616   1.000
    Zr101   Zr   0.88620   0.35504   0.24616   1.000
    Zr102   Zr   0.02783   0.99628   0.29339   1.000
    Zr103   Zr   0.52782   0.99629   0.29339   1.000
    Zr104   Zr   0.35883   0.81709   0.21940   1.000
    Zr105   Zr   0.85884   0.81716   0.21932   1.000
    Zr106   Zr   0.27333   0.85904   0.25890   1.000
    Zr107   Zr   0.77333   0.85903   0.25891   1.000
    Zr108   Zr   0.39587   0.88184   0.54050   1.000
    Zr109   Zr   0.89586   0.88182   0.54040   1.000
    Zr110   Zr   0.37073   0.01766   0.57821   1.000
    Zr111   Zr   0.87072   0.01765   0.57819   1.000
    Zr112   Zr   0.16647   0.13707   0.29360   1.000
    Zr113   Zr   0.66646   0.13706   0.29300   1.000
    Zr114   Zr   0.16663   0.05566   0.18589   1.000
    Zr115   Zr   0.66663   0.05564   0.18588   1.000
    Zr116   Zr   0.21952   0.21785   0.92656   1.000
    Zr117   Zr   0.71951   0.21784   0.92655   1.000
    Zr118   Zr   0.31038   0.24795   0.93321   1.000
    Zr119   Zr   0.81037   0.24795   0.93321   1.000
    Zr120   Zr   0.26379   0.64026   0.20013   1.000
    Zr121   Zr   0.76380   0.64027   0.20014   1.000
    Zr122   Zr   0.13864   0.71177   0.26330   1.000
    Zr123   Zr   0.63859   0.71173   0.26328   1.000
    Zr124   Zr   0.13625   0.85492   0.25390   1.000
    Zr125   Zr   0.63622   0.85487   0.25392   1.000
    Zr126   Zr   0.27770   0.49619   0.20649   1.000
    Zr127   Zr   0.77777   0.49621   0.20650   1.000
    Zr128   Zr   0.10859   0.31735   0.27998   1.000
    Zr129   Zr   0.60858   0.31736   0.27995   1.000
    Zr130   Zr   0.02300   0.36190   0.24324   1.000
    Zr131   Zr   0.52300   0.36201   0.24327   1.000
    Zr132   Zr   0.14582   0.38168   0.95972   1.000
    Zr133   Zr   0.64583   0.38166   0.95973   1.000
    Zr134   Zr   0.12069   0.51734   0.92110   1.000
    Zr135   Zr   0.62070   0.51728   0.92109   1.000
    Zr136   Zr   0.41656   0.63685   0.20678   1.000
    Zr137   Zr   0.91646   0.63680   0.20686   1.000
    Zr138   Zr   0.41491   0.55723   0.31596   1.000
    Zr139   Zr   0.91589   0.55640   0.31555   1.000
    Zr140   Zr   0.46950   0.71814   0.57351   1.000
    Zr141   Zr   0.96949   0.71813   0.57348   1.000
    Zr142   Zr   0.06037   0.74807   0.56672   1.000
    Zr143   Zr   0.56037   0.74808   0.56672   1.000
    Zr144   Zr   0.48631   0.85971   0.70026   1.000
    Zr145   Zr   0.98632   0.85971   0.70025   1.000
    Zr146   Zr   0.11118   0.78800   0.76342   1.000
    Zr147   Zr   0.61117   0.78788   0.76341   1.000
    Zr148   Zr   0.11380   0.64494   0.75384   1.000
    Zr149   Zr   0.61380   0.64483   0.75384   1.000
    Zr150   Zr   0.47217   0.00000   0.70661   1.000
    Zr151   Zr   0.97217   0.00000   0.70661   1.000
    Zr152   Zr   0.14116   0.18288   0.78066   1.000
    Zr153   Zr   0.64117   0.18294   0.78059   1.000
    Zr154   Zr   0.22667   0.14095   0.74112   1.000
    Zr155   Zr   0.72667   0.14095   0.74110   1.000
    Zr156   Zr   0.10414   0.11819   0.45951   1.000
    Zr157   Zr   0.60413   0.11817   0.45900   1.000
    Zr158   Zr   0.12928   0.98235   0.42182   1.000
    Zr159   Zr   0.62927   0.98234   0.42179   1.000
    Zr160   Zr   0.33354   0.86293   0.70640   1.000
    Zr161   Zr   0.83353   0.86292   0.70639   1.000
    Zr162   Zr   0.33338   0.94435   0.81411   1.000
    Zr163   Zr   0.83337   0.94434   0.81411   1.000
    Zr164   Zr   0.28049   0.78216   0.07345   1.000
    Zr165   Zr   0.78048   0.78216   0.07340   1.000
    Zr166   Zr   0.18963   0.75205   0.06680   1.000
    Zr167   Zr   0.68962   0.75205   0.06600   1.000
    O168    O    0.86159   0.57940   0.03409   1.000
    O169    O    0.87416   0.51157   0.05336   1.000
    O170    O    0.36158   0.57941   0.03410   1.000
    O171    O    0.37415   0.51160   0.05341   1.000
    O172    O    0.71322   0.75670   0.05004   1.000
    O173    O    0.75865   0.77175   0.05374   1.000
    O174    O    0.21323   0.75670   0.05044   1.000
    O175    O    0.25866   0.77176   0.05377   1.000
    O176    O    0.34886   0.66028   0.09223   1.000
    O177    O    0.84886   0.66029   0.09223   1.000
    O178    O    0.70153   0.76259   0.13049   1.000
    O179    O    0.20155   0.76259   0.13089   1.000
    O180    O    0.81201   0.74221   0.10879   1.000
    O181    O    0.31202   0.74219   0.10882   1.000
    O182    O    0.87504   0.48750   0.14409   1.000
    O183    O    0.37497   0.48759   0.14418   1.000
    O184    O    0.80367   0.67126   0.17216   1.000
    O185    O    0.88000   0.66953   0.17552   1.000
    O186    O    0.85119   0.75971   0.18175   1.000
    O187    O    0.30367   0.67124   0.17216   1.000
    O188    O    0.38005   0.66954   0.17548   1.000
    O189    O    0.35119   0.75966   0.18179   1.000
    O190    O    0.67327   0.09071   0.20333   1.000
    O191    O    0.64373   0.02378   0.23863   1.000
    O192    O    0.17329   0.09073   0.20334   1.000
    O193    O    0.14374   0.02381   0.23865   1.000
    O194    O    0.24340   0.81609   0.22694   1.000
    O195    O    0.17605   0.74246   0.22914   1.000
    O196    O    0.74338   0.81608   0.22695   1.000
    O197    O    0.67601   0.74243   0.22913   1.000
    O198    O    0.75527   0.60016   0.19809   1.000
    O199    O    0.76226   0.52813   0.20127   1.000
    O200    O    0.25524   0.60016   0.19810   1.000
    O201    O    0.26220   0.52812   0.20128   1.000
    O202    O    0.32417   0.49432   0.20798   1.000
    O203    O    0.82427   0.49427   0.20793   1.000
    O204    O    0.42292   0.63161   0.24343   1.000
    O205    O    0.92304   0.63142   0.24341   1.000
    O206    O    0.87848   0.42369   0.22776   1.000
    O207    O    0.89333   0.52437   0.26246   1.000
    O208    O    0.37842   0.42381   0.22781   1.000
    O209    O    0.39277   0.52485   0.26271   1.000
    O210    O    0.84237   0.84192   0.23728   1.000
    O211    O    0.34236   0.84187   0.23734   1.000
    O212    O    0.67319   0.13142   0.25689   1.000
    O213    O    0.17320   0.13143   0.25719   1.000
    O214    O    0.37626   0.24691   0.23014   1.000
    O215    O    0.37494   0.31843   0.23493   1.000
    O216    O    0.87625   0.24680   0.23017   1.000
    O217    O    0.87494   0.31832   0.23497   1.000
    O218    O    0.92613   0.24272   0.27088   1.000
    O219    O    0.42614   0.24279   0.27088   1.000
    O220    O    0.04932   0.36497   0.24422   1.000
    O221    O    0.99322   0.31768   0.27422   1.000
    O222    O    0.54933   0.36504   0.24426   1.000
    O223    O    0.49323   0.31774   0.27423   1.000
    O224    O    0.09212   0.34270   0.26259   1.000
    O225    O    0.59212   0.34272   0.26260   1.000
    O226    O    0.12494   0.81818   0.26504   1.000
    O227    O    0.12855   0.92344   0.27265   1.000
    O228    O    0.62489   0.81813   0.26504   1.000
    O229    O    0.62853   0.92340   0.27265   1.000
    O230    O    0.79961   0.86286   0.25707   1.000
    O231    O    0.29961   0.86284   0.25709   1.000
    O232    O    0.62608   0.74656   0.26972   1.000
    O233    O    0.12613   0.74661   0.26974   1.000
    O234    O    0.60100   0.25987   0.31773   1.000
    O235    O    0.92275   0.59122   0.29776   1.000
    O236    O    0.10100   0.25987   0.31775   1.000
    O237    O    0.42209   0.59181   0.29802   1.000
    O238    O    0.57433   0.99410   0.29239   1.000
    O239    O    0.62505   0.98713   0.35659   1.000
    O240    O    0.07434   0.99412   0.29240   1.000
    O241    O    0.12506   0.98715   0.35661   1.000
    O242    O    0.62994   0.16972   0.32425   1.000
    O243    O    0.51226   0.02815   0.29853   1.000
    O244    O    0.01226   0.02814   0.29854   1.000
    O245    O    0.12994   0.16973   0.32456   1.000
    O246    O    0.00519   0.10014   0.30169   1.000
    O247    O    0.05355   0.17133   0.32761   1.000
    O248    O    0.50519   0.10015   0.30171   1.000
    O249    O    0.55356   0.17134   0.32762   1.000
    O250    O    0.45154   0.26269   0.36923   1.000
    O251    O    0.95154   0.26269   0.36923   1.000
    O252    O    0.56196   0.24212   0.39099   1.000
    O253    O    0.59878   0.16028   0.40725   1.000
    O254    O    0.06196   0.24212   0.39102   1.000
    O255    O    0.09878   0.16028   0.40752   1.000
    O256    O    0.62413   0.01138   0.44706   1.000
    O257    O    0.12414   0.01139   0.44709   1.000
    O258    O    0.50868   0.27143   0.44620   1.000
    O259    O    0.00868   0.27145   0.44622   1.000
    O260    O    0.96325   0.25648   0.44960   1.000
    O261    O    0.46324   0.25646   0.44960   1.000
    O262    O    0.61156   0.07930   0.46567   1.000
    O263    O    0.11157   0.07931   0.46593   1.000
    O264    O    0.88843   0.92070   0.53403   1.000
    O265    O    0.87586   0.98861   0.55292   1.000
    O266    O    0.38844   0.92071   0.53409   1.000
    O267    O    0.37587   0.98863   0.55294   1.000
    O268    O    0.03675   0.74351   0.55039   1.000
    O269    O    0.99131   0.72854   0.55377   1.000
    O270    O    0.53676   0.74353   0.55040   1.000
    O271    O    0.49132   0.72856   0.55380   1.000
    O272    O    0.90122   0.83973   0.59244   1.000
    O273    O    0.40122   0.83973   0.59250   1.000
    O274    O    0.04846   0.73731   0.63077   1.000
    O275    O    0.54846   0.73730   0.63077   1.000
    O276    O    0.93804   0.75788   0.60898   1.000
    O277    O    0.43804   0.75788   0.60900   1.000
    O278    O    0.87494   0.00883   0.64340   1.000
    O279    O    0.37494   0.00883   0.64341   1.000
    O280    O    0.94645   0.82867   0.67237   1.000
    O281    O    0.87006   0.83028   0.67544   1.000
    O282    O    0.89900   0.74015   0.68226   1.000
    O283    O    0.44645   0.82867   0.67238   1.000
    O284    O    0.37006   0.83028   0.67545   1.000
    O285    O    0.39900   0.74014   0.68227   1.000
    O286    O    0.57796   0.40812   0.70196   1.000
    O287    O    0.60727   0.47510   0.73725   1.000
    O288    O    0.07737   0.40868   0.70220   1.000
    O289    O    0.10678   0.47555   0.73750   1.000
    O290    O    0.50677   0.68226   0.72577   1.000
    O291    O    0.57386   0.75721   0.72911   1.000
    O292    O    0.00678   0.68232   0.72578   1.000
    O293    O    0.07387   0.75727   0.72912   1.000
    O294    O    0.99316   0.89986   0.69829   1.000
    O295    O    0.98608   0.97000   0.70147   1.000
    O296    O    0.49481   0.89985   0.69830   1.000
    O297    O    0.48774   0.97000   0.70147   1.000
    O298    O    0.82680   0.86856   0.74280   1.000
    O299    O    0.32681   0.86857   0.74281   1.000
    O300    O    0.42567   0.00000   0.70761   1.000
    O301    O    0.92566   0.00000   0.70761   1.000
    O302    O    0.87146   0.07255   0.72734   1.000
    O303    O    0.85626   0.97217   0.76136   1.000
    O304    O    0.37147   0.07257   0.72734   1.000
    O305    O    0.35627   0.97218   0.76136   1.000
    O306    O    0.57709   0.36835   0.75657   1.000
    O307    O    0.07698   0.36855   0.75659   1.000
    O308    O    0.90789   0.65732   0.73739   1.000
    O309    O    0.40789   0.65730   0.73740   1.000
    O310    O    0.37393   0.25345   0.73025   1.000
    O311    O    0.37511   0.18188   0.73494   1.000
    O312    O    0.87388   0.25341   0.73027   1.000
    O313    O    0.87507   0.18183   0.73496   1.000
    O314    O    0.32399   0.25757   0.77086   1.000
    O315    O    0.82396   0.25755   0.77087   1.000
    O316    O    0.70039   0.13715   0.74290   1.000
    O317    O    0.75661   0.18390   0.77307   1.000
    O318    O    0.20039   0.13714   0.74295   1.000
    O319    O    0.25662   0.18391   0.77307   1.000
    O320    O    0.65764   0.15815   0.76265   1.000
    O321    O    0.15763   0.15811   0.76272   1.000
    O322    O    0.62505   0.68155   0.76503   1.000
    O323    O    0.62159   0.57618   0.77217   1.000
    O324    O    0.12506   0.68166   0.76504   1.000
    O325    O    0.12153   0.57630   0.77223   1.000
    O326    O    0.95068   0.63503   0.75575   1.000
    O327    O    0.45067   0.63496   0.75574   1.000
    O328    O    0.62374   0.75308   0.76982   1.000
    O329    O    0.12375   0.75319   0.76983   1.000
    O330    O    0.82671   0.90927   0.79666   1.000
    O331    O    0.32672   0.90929   0.79667   1.000
    O332    O    0.64881   0.24036   0.81821   1.000
    O333    O    0.14881   0.24032   0.81824   1.000
    O334    O    0.67584   0.50566   0.79201   1.000
    O335    O    0.62504   0.51240   0.85580   1.000
    O336    O    0.17575   0.50572   0.79206   1.000
    O337    O    0.12497   0.51249   0.85586   1.000
    O338    O    0.11999   0.33047   0.82449   1.000
    O339    O    0.61994   0.33046   0.82453   1.000
    O340    O    0.23775   0.47187   0.79873   1.000
    O341    O    0.73781   0.47187   0.79873   1.000
    O342    O    0.74476   0.39984   0.80190   1.000
    O343    O    0.69634   0.32876   0.82785   1.000
    O344    O    0.24474   0.39984   0.80191   1.000
    O345    O    0.19634   0.32875   0.82784   1.000
    O346    O    0.29847   0.23741   0.86912   1.000
    O347    O    0.79846   0.23740   0.86912   1.000
    O348    O    0.18799   0.25780   0.89119   1.000
    O349    O    0.15114   0.33972   0.90777   1.000
    O350    O    0.68798   0.25781   0.89119   1.000
    O351    O    0.65115   0.33972   0.90778   1.000
    O352    O    0.62585   0.48840   0.94658   1.000
    O353    O    0.12584   0.48843   0.94660   1.000
    O354    O    0.74134   0.22825   0.94624   1.000
    O355    O    0.24135   0.22825   0.94625   1.000
    O356    O    0.28678   0.24330   0.94957   1.000
    O357    O    0.78677   0.24330   0.94957   1.000
    O358    O    0.13841   0.42061   0.96591   1.000
    O359    O    0.63842   0.42059   0.96590   1.000
    O360    O    0.26139   0.29330   0.80244   1.000
    O361    O    0.76138   0.29330   0.80245   1.000
    O362    O    0.32518   0.18600   0.77555   1.000
    O363    O    0.82515   0.18597   0.77556   1.000
    O364    O    0.10639   0.43542   0.79189   1.000
    O365    O    0.60640   0.43533   0.79186   1.000
    O366    O    0.98856   0.20687   0.30245   1.000
    O367    O    0.48857   0.20688   0.30246   1.000
    O368    O    0.42483   0.31431   0.27567   1.000
    O369    O    0.92482   0.31425   0.27568   1.000
    O370    O    0.14365   0.06451   0.29250   1.000
    O371    O    0.64365   0.06449   0.29219   1.000
    O372    O    0.23863   0.70670   0.19755   1.000
    O373    O    0.73862   0.70670   0.19756   1.000
    O374    O    0.17486   0.81403   0.22444   1.000
    O375    O    0.67483   0.81400   0.22445   1.000
    O376    O    0.39360   0.56465   0.20812   1.000
    O377    O    0.89361   0.56457   0.20811   1.000
    O378    O    0.51143   0.79312   0.69754   1.000
    O379    O    0.01144   0.79313   0.69753   1.000
    O380    O    0.07518   0.68575   0.72433   1.000
    O381    O    0.57517   0.68568   0.72433   1.000
    O382    O    0.35635   0.93146   0.70750   1.000
    O383    O    0.85634   0.93146   0.70750   1.000
    N384    N    0.89365   0.97864   0.35801   1.000
    O385    O    0.88649   0.97594   0.42129   1.000
    O386    O    0.86636   0.94138   0.31846   1.000
    O387    O    0.93020   0.01413   0.33646   1.000
    N388    N    0.39365   0.97865   0.35800   1.000
    O389    O    0.43020   0.01414   0.33645   1.000
    O390    O    0.36636   0.94137   0.31848   1.000
    O391    O    0.38649   0.97595   0.42117   1.000
    N392    N    0.10634   0.02040   0.64197   1.000
    O393    O    0.13363   0.05815   0.68153   1.000
    O394    O    0.11351   0.02359   0.57870   1.000
    O395    O    0.06897   0.98540   0.66353   1.000
    N396    N    0.76388   0.23078   0.13795   1.000
    O397    O    0.73050   0.19601   0.16919   1.000
    O398    O    0.76229   0.23818   0.07400   1.000
    O399    O    0.79975   0.25517   0.17067   1.000
    N400    N    0.48635   0.26893   0.63788   1.000
    O401    O    0.45043   0.24477   0.67085   1.000
    O402    O    0.48785   0.26148   0.57397   1.000
    O403    O    0.51986   0.30356   0.66887   1.000
    N404    N    0.85643   0.52085   0.85824   1.000
    O405    O    0.88379   0.55777   0.81846   1.000
    O406    O    0.81983   0.48551   0.83677   1.000
    O407    O    0.86355   0.52375   0.92155   1.000
    N408    N    0.01373   0.73100   0.36207   1.000
    O409    O    0.04964   0.75522   0.32912   1.000
    O410    O    0.98030   0.69626   0.33106   1.000
    O411    O    0.01219   0.73846   0.42599   1.000
    N412    N    0.35640   0.52084   0.85826   1.000
    O413    O    0.31980   0.48552   0.83679   1.000
    O414    O    0.36352   0.52374   0.92156   1.000
    O415    O    0.38376   0.55775   0.81848   1.000
    N416    N    0.14357   0.47917   0.14175   1.000
    O417    O    0.18017   0.51449   0.16323   1.000
    O418    O    0.13645   0.47627   0.07844   1.000
    O419    O    0.11621   0.44224   0.18152   1.000
    N420    N    0.60634   0.02040   0.64196   1.000
    O421    O    0.61351   0.02358   0.57869   1.000
    O422    O    0.63363   0.05816   0.68150   1.000
    O423    O    0.56980   0.98539   0.66353   1.000
    N424    N    0.26389   0.23081   0.13801   1.000
    O425    O    0.23052   0.19603   0.16922   1.000
    O426    O    0.29976   0.25523   0.17086   1.000
    O427    O    0.26230   0.23819   0.07404   1.000
    N428    N    0.51366   0.73106   0.36209   1.000
    O429    O    0.51215   0.73851   0.42601   1.000
    O430    O    0.54957   0.75523   0.32912   1.000
    O431    O    0.48015   0.69642   0.33111   1.000
    N432    N    0.23611   0.76922   0.86200   1.000
    O433    O    0.26949   0.80400   0.83078   1.000
    O434    O    0.23771   0.76183   0.92597   1.000
    O435    O    0.20024   0.74483   0.82914   1.000
    N436    N    0.73610   0.76919   0.86198   1.000
    O437    O    0.76948   0.80397   0.83077   1.000
    O438    O    0.73769   0.76181   0.92593   1.000
    O439    O    0.70024   0.74477   0.82912   1.000
    N440    N    0.98628   0.26901   0.63791   1.000
    O441    O    0.95037   0.24479   0.67087   1.000
    O442    O    0.98782   0.26155   0.57399   1.000
    O443    O    0.01972   0.30373   0.66892   1.000
    N444    N    0.64360   0.47917   0.14172   1.000
    O445    O    0.68020   0.51449   0.16320   1.000
    O446    O    0.61624   0.44226   0.18151   1.000
    O447    O    0.63648   0.47627   0.07840   1.000
loop_
    _geom_bond_atom_site_label_1
    _geom_bond_atom_site_label_2
    _geom_bond_distance
    _geom_bond_site_symmetry_2
    _ccdc_geom_bond_type
    Zr31   O168      0.63899      .   S
    Zr85   O168      0.63899      .   S
    Zr31   O169      0.63576      .   S
    Zr87   O169      0.63576      .   S
    Zr30   O170      0.63900      .   S
    Zr84   O170      0.63900      .   S
    Zr30   O171      0.63575      .   S
    Zr86   O171      0.63575      .   S
    Zr71   O172      0.63391      .   S
    Zr167  O172      0.63391      .   S
    Zr71   O173      0.64133      .   S
    Zr165  O173      0.64133      .   S
    Zr70   O174      0.63686      .   S
    Zr166  O174      0.63686      .   S
    Zr70   O175      0.64149      .   S
    Zr164  O175      0.64149      .   S
    Zr84   O176      1.10614      .   S
    Zr12   O176      1.10614      .   S
    Zr85   O177      1.10633      .   S
    Zr13   O177      1.10633      .   S
    Zr167  O178      1.14667      .   S
    Zr15   O178      1.14667      .   S
    Zr166  O179      1.14010      .   S
    Zr14   O179      1.14010      .   S
    Zr165  O180      1.16140      .   S
    Zr13   O180      1.16140      .   S
    Zr164  O181      1.16129      .   S
    Zr12   O181      1.16129      .   S
    Zr87   O182      1.11999      .   S
    Zr11   O182      1.11999      .   S
    Zr86   O183      1.12042      .   S
    Zr10   O183      1.12042      .   S
    Zr13   O184      1.16382      .   S
    Zr121  O184      1.16382      .   S
    Zr13   O185      1.15793      .   S
    Zr137  O185      1.15793      .   S
    Zr13   O186      1.10316      .   S
    Zr105  O186      1.10316      .   S
    Zr12   O187      1.16393      .   S
    Zr120  O187      1.16393      .   S
    Zr12   O188      1.15823      .   S
    Zr136  O188      1.15823      .   S
    Zr12   O189      1.10327      .   S
    Zr104  O189      1.10327      .   S
    Zr115  O190      0.63282      .   S
    Zr45   O190      0.63282      .   S
    Zr115  O191      1.15618      .   S
    Zr17   O191      1.15618  1_565   S
    Zr114  O192      0.63279      .   S
    Zr44   O192      0.63279      .   S
    Zr114  O193      1.15624      .   S
    Zr16   O193      1.15624  1_565   S
    Zr14   O194      1.10846      .   S
    Zr106  O194      1.10846      .   S
    Zr14   O195      1.16301      .   S
    Zr122  O195      1.16301      .   S
    Zr15   O196      1.10867      .   S
    Zr107  O196      1.10867      .   S
    Zr15   O197      1.16323      .   S
    Zr123  O197      1.16323      .   S
    Zr49   O198      0.64553      .   S
    Zr121  O198      0.64553      .   S
    Zr49   O199      0.63287      .   S
    Zr127  O199      0.63287      .   S
    Zr48   O200      0.64550      .   S
    Zr120  O200      0.64550      .   S
    Zr48   O201      0.63285      .   S
    Zr126  O201      0.63285      .   S
    Zr126  O202      1.12436      .   S
    Zr10   O202      1.12436      .   S
    Zr127  O203      1.12511      .   S
    Zr11   O203      1.12511      .   S
    Zr136  O204      0.64869      .   S
    Zr56   O204      0.64869      .   S
    Zr137  O205      0.64867      .   S
    Zr57   O205      0.64867      .   S
    Zr11   O206      1.12193      .   S
    Zr101  O206      1.12193      .   S
    Zr11   O207      1.15934      .   S
    Zr139  O207      1.15934      .   S
    Zr10   O208      1.12210      .   S
    Zr100  O208      1.12210      .   S
    Zr10   O209      1.15895      .   S
    Zr138  O209      1.15895      .   S
    Zr105  O210      0.63772      .   S
    Zr41   O210      0.63772      .   S
    Zr104  O211      0.63774      .   S
    Zr40   O211      0.63774      .   S
    Zr45   O212      0.64334      .   S
    Zr113  O212      0.64334      .   S
    Zr44   O213      0.64817      .   S
    Zr112  O213      0.64817      .   S
    Zr38   O214      0.63289      .   S
    Zr98   O214      0.63289      .   S
    Zr38   O215      0.64864      .   S
    Zr100  O215      0.64864      .   S
    Zr39   O216      0.63277      .   S
    Zr99   O216      0.63277      .   S
    Zr39   O217      0.64844      .   S
    Zr101  O217      0.64844      .   S
    Zr99   O218      1.16330      .   S
    Zr9    O218      1.16330      .   S
    Zr98   O219      1.16299      .   S
    Zr8    O219      1.16299      .   S
    Zr130  O220      0.63667      .   S
    Zr52   O220      0.63667      .   S
    Zr130  O221      1.10845  1_455   S
    Zr9    O221      1.10845      .   S
    Zr131  O222      0.63670      .   S
    Zr53   O222      0.63670      .   S
    Zr131  O223      1.10858      .   S
    Zr8    O223      1.10858      .   S
    Zr52   O224      0.63809      .   S
    Zr128  O224      0.63809      .   S
    Zr53   O225      0.63786      .   S
    Zr129  O225      0.63786      .   S
    Zr124  O226      0.64848      .   S
    Zr50   O226      0.64848      .   S
    Zr124  O227      1.12262      .   S
    Zr16   O227      1.12262      .   S
    Zr125  O228      0.64848      .   S
    Zr51   O228      0.64848      .   S
    Zr125  O229      1.12259      .   S
    Zr17   O229      1.12259      .   S
    Zr41   O230      0.63677      .   S
    Zr107  O230      0.63677      .   S
    Zr40   O231      0.63674      .   S
    Zr106  O231      0.63674      .   S
    Zr123  O232      0.63277      .   S
    Zr51   O232      0.63277      .   S
    Zr122  O233      0.63278      .   S
    Zr50   O233      0.63278      .   S
    Zr129  O234      1.10378      .   S
    Zr7    O234      1.10378      .   S
    Zr57   O235      0.63271      .   S
    Zr139  O235      0.63271      .   S
    Zr128  O236      1.10372      .   S
    Zr6    O236      1.10372      .   S
    Zr56   O237      0.63272      .   S
    Zr138  O237      0.63272      .   S
    Zr17   O238      1.12548      .   S
    Zr103  O238      1.12548      .   S
    Zr17   O239      1.11846      .   S
    Zr159  O239      1.11846      .   S
    Zr16   O240      1.12548      .   S
    Zr102  O240      1.12548      .   S
    Zr16   O241      1.11855      .   S
    Zr158  O241      1.11855      .   S
    Zr113  O242      1.15860      .   S
    Zr7    O242      1.15860      .   S
    Zr103  O243      0.63287  1_565   S
    Zr37   O243      0.63287      .   S
    Zr102  O244      0.63288  1_565   S
    Zr36   O244      0.63288  1_655   S
    Zr112  O245      1.15645      .   S
    Zr6    O245      1.15645      .   S
    Zr96   O246      0.64564      .   S
    Zr36   O246      0.64564  1_655   S
    Zr96   O247      1.16411      .   S
    Zr6    O247      1.16411      .   S
    Zr97   O248      0.64561      .   S
    Zr37   O248      0.64561      .   S
    Zr97   O249      1.16396      .   S
    Zr7    O249      1.16396      .   S
    Zr8    O250      1.13948      .   S
    Zr94   O250      1.13948      .   S
    Zr9    O251      1.13929      .   S
    Zr95   O251      1.13929      .   S
    Zr7    O252      1.16050      .   S
    Zr93   O252      1.16050      .   S
    Zr7    O253      1.10328      .   S
    Zr157  O253      1.10328      .   S
    Zr6    O254      1.16050      .   S
    Zr92   O254      1.16050      .   S
    Zr6    O255      1.10657      .   S
    Zr156  O255      1.10657      .   S
    Zr159  O256      0.63592  1_565   S
    Zr67   O256      0.63592      .   S
    Zr158  O257      0.63587  1_565   S
    Zr66   O257      0.63587      .   S
    Zr93   O258      0.64152      .   S
    Zr34   O258      0.64152      .   S
    Zr92   O259      0.64140      .   S
    Zr35   O259      0.64140  1_655   S
    Zr95   O260      0.63685      .   S
    Zr35   O260      0.63685      .   S
    Zr94   O261      0.63684      .   S
    Zr34   O261      0.63684      .   S
    Zr157  O262      0.63948      .   S
    Zr67   O262      0.63948      .   S
    Zr156  O263      0.63876      .   S
    Zr66   O263      0.63876      .   S
    Zr43   O264      0.63863      .   S
    Zr109  O264      0.63863      .   S
    Zr43   O265      0.63592      .   S
    Zr111  O265      0.63592  1_545   S
    Zr42   O266      0.63876      .   S
    Zr108  O266      0.63876      .   S
    Zr42   O267      0.63590      .   S
    Zr110  O267      0.63590  1_545   S
    Zr58   O268      0.63686      .   S
    Zr142  O268      0.63686      .   S
    Zr58   O269      0.64141  1_455   S
    Zr141  O269      0.64141      .   S
    Zr59   O270      0.63682      .   S
    Zr143  O270      0.63682      .   S
    Zr59   O271      0.64146      .   S
    Zr140  O271      0.64146      .   S
    Zr109  O272      1.10716      .   S
    Zr19   O272      1.10716      .   S
    Zr108  O273      1.10661      .   S
    Zr18   O273      1.10661      .   S
    Zr142  O274      1.13935      .   S
    Zr20   O274      1.13935      .   S
    Zr143  O275      1.13946      .   S
    Zr21   O275      1.13946      .   S
    Zr141  O276      1.16056      .   S
    Zr19   O276      1.16056      .   S
    Zr140  O277      1.16052      .   S
    Zr18   O277      1.16052      .   S
    Zr111  O278      1.12432      .   S
    Zr5    O278      1.12432      .   S
    Zr110  O279      1.12417      .   S
    Zr4    O279      1.12417      .   S
    Zr19   O280      1.16392      .   S
    Zr145  O280      1.16392      .   S
    Zr19   O281      1.15639      .   S
    Zr161  O281      1.15639      .   S
    Zr19   O282      1.10371      .   S
    Zr81   O282      1.10371      .   S
    Zr18   O283      1.16397      .   S
    Zr144  O283      1.16397      .   S
    Zr18   O284      1.15627      .   S
    Zr160  O284      1.15627      .   S
    Zr18   O285      1.10375      .   S
    Zr80   O285      1.10375      .   S
    Zr91   O286      0.63274      .   S
    Zr33   O286      0.63274      .   S
    Zr91   O287      1.15881      .   S
    Zr23   O287      1.15881      .   S
    Zr90   O288      0.63275      .   S
    Zr32   O288      0.63275      .   S
    Zr90   O289      1.15922      .   S
    Zr22   O289      1.15922      .   S
    Zr21   O290      1.10859      .   S
    Zr82   O290      1.10859      .   S
    Zr21   O291      1.16291      .   S
    Zr147  O291      1.16291      .   S
    Zr20   O292      1.10842      .   S
    Zr83   O292      1.10842  1_655   S
    Zr20   O293      1.16317      .   S
    Zr146  O293      1.16317      .   S
    Zr61   O294      0.63523  1_455   S
    Zr145  O294      0.63523      .   S
    Zr61   O295      0.58581  1_455   S
    Zr151  O295      0.58581  1_545   S
    Zr60   O296      0.64562      .   S
    Zr144  O296      0.64562      .   S
    Zr60   O297      0.61052      .   S
    Zr150  O297      0.61052  1_545   S
    Zr161  O298      0.64818      .   S
    Zr69   O298      0.64818      .   S
    Zr160  O299      0.64819      .   S
    Zr68   O299      0.64819      .   S
    Zr150  O300      1.12394      .   S
    Zr4    O300      1.12394      .   S
    Zr151  O301      1.12397      .   S
    Zr5    O301      1.12397      .   S
    Zr5    O302      1.18125      .   S
    Zr77   O302      1.18125      .   S
    Zr5    O303      1.13239  1_545   S
    Zr163  O303      1.13239      .   S
    Zr4    O304      1.18150      .   S
    Zr76   O304      1.18150      .   S
    Zr4    O305      1.13231  1_545   S
    Zr162  O305      1.13231      .   S
    Zr33   O306      0.64863      .   S
    Zr89   O306      0.64863      .   S
    Zr32   O307      0.64862      .   S
    Zr88   O307      0.64862      .   S
    Zr81   O308      0.63784      .   S
    Zr29   O308      0.63784      .   S
    Zr80   O309      0.63786      .   S
    Zr28   O309      0.63786      .   S
    Zr26   O310      0.63282      .   S
    Zr74   O310      0.63282      .   S
    Zr26   O311      0.64861      .   S
    Zr76   O311      0.64861      .   S
    Zr27   O312      0.63276      .   S
    Zr75   O312      0.63276      .   S
    Zr27   O313      0.64844      .   S
    Zr77   O313      0.64844      .   S
    Zr74   O314      1.16330      .   S
    Zr2    O314      1.16330      .   S
    Zr75   O315      1.16305      .   S
    Zr3    O315      1.16305      .   S
    Zr155  O316      0.63672      .   S
    Zr65   O316      0.63672      .   S
    Zr155  O317      1.10858      .   S
    Zr3    O317      1.10858      .   S
    Zr154  O318      0.63675      .   S
    Zr64   O318      0.63675      .   S
    Zr154  O319      1.10865      .   S
    Zr2    O319      1.10865      .   S
    Zr65   O320      0.63786      .   S
    Zr153  O320      0.63786      .   S
    Zr64   O321      0.63774      .   S
    Zr152  O321      0.63774      .   S
    Zr149  O322      0.64842      .   S
    Zr63   O322      0.64842      .   S
    Zr149  O323      1.12207      .   S
    Zr23   O323      1.12207      .   S
    Zr148  O324      0.64843      .   S
    Zr62   O324      0.64843      .   S
    Zr148  O325      1.12195      .   S
    Zr22   O325      1.12195      .   S
    Zr29   O326      0.63667      .   S
    Zr83   O326      0.63667      .   S
    Zr28   O327      0.63671      .   S
    Zr82   O327      0.63671      .   S
    Zr147  O328      0.63279      .   S
    Zr63   O328      0.63279      .   S
    Zr146  O329      0.63278      .   S
    Zr62   O329      0.63278      .   S
    Zr69   O330      0.63283      .   S
    Zr163  O330      0.63283      .   S
    Zr68   O331      0.63280      .   S
    Zr162  O331      0.63280      .   S
    Zr153  O332      1.10326      .   S
    Zr1    O332      1.10326      .   S
    Zr152  O333      1.10314      .   S
    Zr0    O333      1.10314      .   S
    Zr23   O334      1.12432      .   S
    Zr79   O334      1.12432      .   S
    Zr23   O335      1.12061      .   S
    Zr135  O335      1.12061      .   S
    Zr22   O336      1.12495      .   S
    Zr78   O336      1.12495      .   S
    Zr22   O337      1.11952      .   S
    Zr134  O337      1.11952      .   S
    Zr88   O338      1.15799      .   S
    Zr0    O338      1.15799      .   S
    Zr89   O339      1.15828      .   S
    Zr1    O339      1.15828      .   S
    Zr78   O340      0.63285      .   S
    Zr24   O340      0.63285      .   S
    Zr79   O341      0.63284      .   S
    Zr25   O341      0.63284      .   S
    Zr73   O342      0.64550      .   S
    Zr25   O342      0.64550      .   S
    Zr73   O343      1.16399      .   S
    Zr1    O343      1.16399      .   S
    Zr72   O344      0.64552      .   S
    Zr24   O344      0.64552      .   S
    Zr72   O345      1.16383      .   S
    Zr0    O345      1.16383      .   S
    Zr2    O346      1.14019      .   S
    Zr118  O346      1.14019      .   S
    Zr3    O347      1.14015      .   S
    Zr119  O347      1.14015      .   S
    Zr0    O348      1.16125      .   S
    Zr116  O348      1.16125      .   S
    Zr0    O349      1.10628      .   S
    Zr132  O349      1.10628      .   S
    Zr1    O350      1.16127      .   S
    Zr117  O350      1.16127      .   S
    Zr1    O351      1.10605      .   S
    Zr133  O351      1.10605      .   S
    Zr135  O352      0.63576      .   S
    Zr55   O352      0.63576      .   S
    Zr134  O353      0.63612      .   S
    Zr54   O353      0.63612      .   S
    Zr117  O354      0.64149      .   S
    Zr47   O354      0.64149      .   S
    Zr116  O355      0.64150      .   S
    Zr46   O355      0.64150      .   S
    Zr118  O356      0.63685      .   S
    Zr46   O356      0.63685      .   S
    Zr119  O357      0.63684      .   S
    Zr47   O357      0.63684      .   S
    Zr132  O358      0.63899      .   S
    Zr54   O358      0.63899      .   S
    Zr133  O359      0.63901      .   S
    Zr55   O359      0.63901      .   S
    Zr72   O360      1.20568      .   S
    Zr2    O360      1.20568      .   S
    Zr73   O361      1.20557      .   S
    Zr3    O361      1.20557      .   S
    Zr76   O362      1.24674      .   S
    Zr2    O362      1.24674      .   S
    Zr77   O363      1.24683      .   S
    Zr3    O363      1.24683      .   S
    Zr88   O364      1.22602      .   S
    Zr22   O364      1.22602      .   S
    Zr89   O365      1.22654      .   S
    Zr23   O365      1.22654      .   S
    Zr96   O366      1.20717  1_455   S
    Zr9    O366      1.20717      .   S
    Zr97   O367      1.20715      .   S
    Zr8    O367      1.20715      .   S
    Zr100  O368      1.24621      .   S
    Zr8    O368      1.24621      .   S
    Zr101  O369      1.24572      .   S
    Zr9    O369      1.24572      .   S
    Zr112  O370      1.22992      .   S
    Zr16   O370      1.22992  1_565   S
    Zr113  O371      1.23000      .   S
    Zr17   O371      1.23000  1_565   S
    Zr120  O372      1.20559      .   S
    Zr14   O372      1.20559      .   S
    Zr121  O373      1.20572      .   S
    Zr15   O373      1.20572      .   S
    Zr124  O374      1.24676      .   S
    Zr14   O374      1.24676      .   S
    Zr125  O375      1.24675      .   S
    Zr15   O375      1.24675      .   S
    Zr136  O376      1.22646      .   S
    Zr10   O376      1.22646      .   S
    Zr137  O377      1.22584      .   S
    Zr11   O377      1.22584      .   S
    Zr144  O378      1.20711      .   S
    Zr21   O378      1.20711      .   S
    Zr145  O379      1.20711  1_655   S
    Zr20   O379      1.20711      .   S
    Zr148  O380      1.24580      .   S
    Zr20   O380      1.24580      .   S
    Zr149  O381      1.24632      .   S
    Zr21   O381      1.24632      .   S
    Zr160  O382      1.17492      .   S
    Zr4    O382      1.17492  1_545   S
    Zr161  O383      1.17498      .   S
    Zr5    O383      1.17498  1_545   S
    N384   O385      1.09273      .   S
    Zr43   O385      1.83402      .   S
    N384   O386      1.09368      .   S
    Zr41   O386      1.83678      .   S
    N384   O387      1.08774  1_565   S
    Zr36   O387      1.82278      .   S
    N388   O389      1.08769  1_565   S
    Zr37   O389      1.82279      .   S
    N388   O390      1.09352      .   S
    Zr40   O390      1.83664      .   S
    N388   O391      1.09093      .   S
    Zr42   O391      1.83634      .   S
    N392   O393      1.09758      .   S
    Zr64   O393      1.84145      .   S
    N392   O394      1.09282      .   S
    Zr66   O394      1.83485      .   S
    N392   O395      1.10029  1_545   S
    Zr61   O395      1.87253      .   S
    N396   O397      1.09236      .   S
    Zr45   O397      1.83058      .   S
    N396   O398      1.09632      .   S
    Zr47   O398      1.84220  1_556   S
    N396   O399      1.08809      .   S
    Zr39   O399      1.82591      .   S
    N400   O401      1.08956      .   S
    Zr26   O401      1.82449      .   S
    N400   O402      1.09622      .   S
    Zr34   O402      1.84167      .   S
    N400   O403      1.09232      .   S
    Zr33   O403      1.83072      .   S
    N404   O405      1.09338      .   S
    Zr29   O405      1.83621      .   S
    N404   O406      1.08752      .   S
    Zr25   O406      1.82250      .   S
    N404   O407      1.09349      .   S
    Zr31   O407      1.83524  1_554   S
    N408   O409      1.08948      .   S
    Zr50   O409      1.82448      .   S
    N408   O410      1.09185  1_455   S
    Zr57   O410      1.82989      .   S
    N408   O411      1.09641      .   S
    Zr58   O411      1.84198      .   S
    N412   O413      1.08761      .   S
    Zr24   O413      1.82270      .   S
    N412   O414      1.09331      .   S
    Zr30   O414      1.83567  1_554   S
    N412   O415      1.09335      .   S
    Zr28   O415      1.83622      .   S
    N416   O417      1.08757      .   S
    Zr48   O417      1.82255      .   S
    N416   O418      1.09346      .   S
    Zr54   O418      1.83522  1_556   S
    N416   O419      1.09326      .   S
    Zr52   O419      1.83584      .   S
    N420   O421      1.09291      .   S
    Zr67   O421      1.83493      .   S
    N420   O422      1.09747      .   S
    Zr65   O422      1.84123      .   S
    N420   O423      1.08428  1_545   S
    Zr60   O423      1.82022      .   S
    N424   O425      1.09216      .   S
    Zr44   O425      1.83043      .   S
    N424   O426      1.08926      .   S
    Zr38   O426      1.82383      .   S
    N424   O427      1.09675      .   S
    Zr46   O427      1.84264  1_556   S
    N428   O429      1.09641      .   S
    Zr59   O429      1.84195      .   S
    N428   O430      1.08959      .   S
    Zr51   O430      1.82470      .   S
    N428   O431      1.09223      .   S
    Zr56   O431      1.83060      .   S
    N432   O433      1.09213      .   S
    Zr68   O433      1.83038      .   S
    N432   O434      1.09679      .   S
    Zr70   O434      1.84266  1_554   S
    N432   O435      1.08936      .   S
    Zr62   O435      1.82421      .   S
    N436   O437      1.09212      .   S
    Zr69   O437      1.83042      .   S
    N436   O438      1.09648      .   S
    Zr71   O438      1.84313  1_554   S
    N436   O439      1.08937      .   S
    Zr63   O439      1.82427      .   S
    N440   O441      1.08954      .   S
    Zr27   O441      1.82457      .   S
    N440   O442      1.09634      .   S
    Zr35   O442      1.84191      .   S
    N440   O443      1.09196  1_655   S
    Zr32   O443      1.83010      .   S
    N444   O445      1.08768      .   S
    Zr49   O445      1.82277      .   S
    N444   O446      1.09343      .   S
    Zr53   O446      1.83630      .   S
    N444   O447      1.09346      .   S
    Zr55   O447      1.83524  1_556   S
