# CIF file generated by openbabel 2.4.90, see http://openbabel.sf.net
data_I
_chemical_name_common ''
_cell_length_a 9.898
_cell_length_b 16.558
_cell_length_c 12.187
_cell_angle_alpha 89.965
_cell_angle_beta 89.971
_cell_angle_gamma 91.592
_space_group_name_H-M_alt 'P 1'
_space_group_name_Hall 'P 1'
loop_
    _symmetry_equiv_pos_as_xyz
    x,y,z
loop_
    _atom_site_label
    _atom_site_type_symbol
    _atom_site_fract_x
    _atom_site_fract_y
    _atom_site_fract_z
    _atom_site_occupancy
    Al0     Al   0.38229   0.93082   0.24998   1.000
    Al1     Al   0.88228   0.43084   0.24998   1.000
    Al2     Al   0.88227   0.93082   0.24998   1.000
    Al3     Al   0.11768   0.06915   0.74999   1.000
    Al4     Al   0.11768   0.56913   0.74998   1.000
    Al5     Al   0.61767   0.06915   0.74998   1.000
    Al6     Al   0.61766   0.56913   0.74999   1.000
    Al7     Al   0.24999   1.00000   0.49998   1.000
    Al8     Al   0.24999   0.49998   0.49998   1.000
    Al9     Al   0.74997   1.00000   0.49998   1.000
    Al10    Al   0.74997   0.49998   0.49998   1.000
    Al11    Al   0.24999   0.00000   0.00000   1.000
    Al12    Al   0.24999   0.49999   0.00000   1.000
    Al13    Al   0.74997   0.00000   0.99999   1.000
    Al14    Al   0.74997   0.49998   0.99997   1.000
    P15     P    0.49512   0.38377   0.48173   1.000
    P16     P    0.49511   0.88375   0.48173   1.000
    P17     P    0.99510   0.38377   0.48173   1.000
    P18     P    0.99509   0.88376   0.48173   1.000
    P19     P    0.00499   0.11628   0.98170   1.000
    P20     P    0.00498   0.61627   0.98170   1.000
    P21     P    0.50497   0.11628   0.98170   1.000
    P22     P    0.50496   0.61627   0.98170   1.000
    P23     P    0.00486   0.11621   0.51823   1.000
    P24     P    0.00486   0.61620   0.51823   1.000
    P25     P    0.50485   0.11621   0.51823   1.000
    P26     P    0.50484   0.61620   0.51823   1.000
    P27     P    0.49499   0.38370   0.01827   1.000
    P28     P    0.49499   0.88369   0.01827   1.000
    P29     P    0.99498   0.38370   0.01827   1.000
    P30     P    0.99497   0.88369   0.01827   1.000
    H31     H    0.35140   0.27157   0.52418   1.000
    Al32    Al   0.38229   0.43084   0.24998   1.000
    H33     H    0.35140   0.77155   0.52418   1.000
    H34     H    0.85138   0.27157   0.52418   1.000
    H35     H    0.85138   0.77155   0.52418   1.000
    H36     H    0.48607   0.28222   0.61858   1.000
    H37     H    0.48606   0.78221   0.61858   1.000
    H38     H    0.98605   0.28222   0.61858   1.000
    H39     H    0.98605   0.78220   0.61858   1.000
    H40     H    0.14852   0.22845   0.02437   1.000
    H41     H    0.14852   0.72844   0.02436   1.000
    H42     H    0.64850   0.22845   0.02436   1.000
    H43     H    0.64850   0.72844   0.02437   1.000
    H44     H    0.01358   0.21772   0.11863   1.000
    H45     H    0.01358   0.71770   0.11863   1.000
    H46     H    0.51357   0.21772   0.11863   1.000
    H47     H    0.51356   0.71770   0.11863   1.000
    H48     H    0.14858   0.22842   0.47579   1.000
    H49     H    0.14857   0.72840   0.47578   1.000
    H50     H    0.64856   0.22842   0.47578   1.000
    H51     H    0.64855   0.72840   0.47579   1.000
    H52     H    0.01391   0.21776   0.38139   1.000
    H53     H    0.01390   0.71775   0.38130   1.000
    H54     H    0.51389   0.21776   0.38139   1.000
    H55     H    0.51389   0.71775   0.38139   1.000
    H56     H    0.35146   0.27153   0.97560   1.000
    H57     H    0.35145   0.77152   0.97560   1.000
    H58     H    0.85144   0.27153   0.97560   1.000
    H59     H    0.85144   0.77152   0.97560   1.000
    H60     H    0.48640   0.28227   0.88133   1.000
    H61     H    0.48639   0.78225   0.88130   1.000
    H62     H    0.98638   0.28227   0.88130   1.000
    H63     H    0.98638   0.78225   0.88133   1.000
    C64     C    0.46114   0.28238   0.53064   1.000
    C65     C    0.46114   0.78237   0.53065   1.000
    C66     C    0.96112   0.28238   0.53065   1.000
    C67     C    0.96112   0.78237   0.53064   1.000
    C68     C    0.03877   0.21760   0.03073   1.000
    C69     C    0.03876   0.71759   0.03073   1.000
    C70     C    0.53875   0.21760   0.03073   1.000
    C71     C    0.53875   0.71759   0.03073   1.000
    C72     C    0.03884   0.21760   0.46932   1.000
    C73     C    0.03883   0.71759   0.46932   1.000
    C74     C    0.53882   0.21760   0.46932   1.000
    C75     C    0.53881   0.71759   0.46932   1.000
    C76     C    0.46121   0.28238   0.96923   1.000
    C77     C    0.46120   0.78237   0.96924   1.000
    C78     C    0.96119   0.28238   0.96924   1.000
    C79     C    0.96119   0.78237   0.96923   1.000
    O80     O    0.39936   0.44058   0.54057   1.000
    O81     O    0.39936   0.94056   0.54050   1.000
    O82     O    0.89935   0.44058   0.54050   1.000
    O83     O    0.89934   0.94056   0.54057   1.000
    O84     O    0.14462   0.40368   0.50383   1.000
    O85     O    0.14462   0.90367   0.50383   1.000
    O86     O    0.64460   0.40368   0.50383   1.000
    O87     O    0.64460   0.90367   0.50383   1.000
    O88     O    0.46906   0.38019   0.35445   1.000
    O89     O    0.46905   0.88017   0.35445   1.000
    O90     O    0.96904   0.38018   0.35445   1.000
    O91     O    0.96904   0.88017   0.35445   1.000
    O92     O    0.10060   0.05939   0.04050   1.000
    O93     O    0.10059   0.55938   0.04058   1.000
    O94     O    0.60058   0.05939   0.04058   1.000
    O95     O    0.60057   0.55938   0.04050   1.000
    O96     O    0.35543   0.09629   0.00364   1.000
    O97     O    0.35543   0.59627   0.00360   1.000
    O98     O    0.85542   0.09629   0.00363   1.000
    O99     O    0.85541   0.59627   0.00364   1.000
    O100    O    0.03153   0.12017   0.85446   1.000
    O101    O    0.03151   0.62016   0.85446   1.000
    O102    O    0.53150   0.12017   0.85446   1.000
    O103    O    0.53150   0.62016   0.85446   1.000
    O104    O    0.10062   0.05941   0.45939   1.000
    O105    O    0.10061   0.55939   0.45939   1.000
    O106    O    0.60060   0.05941   0.45939   1.000
    O107    O    0.60059   0.55939   0.45939   1.000
    O108    O    0.35536   0.09630   0.49614   1.000
    O109    O    0.35535   0.59629   0.49614   1.000
    O110    O    0.85534   0.09630   0.49614   1.000
    O111    O    0.85533   0.59629   0.49614   1.000
    O112    O    0.03092   0.11979   0.64552   1.000
    O113    O    0.03092   0.61979   0.64550   1.000
    O114    O    0.53090   0.11980   0.64550   1.000
    O115    O    0.53089   0.61978   0.64552   1.000
    O116    O    0.39938   0.44059   0.95938   1.000
    O117    O    0.39937   0.94058   0.95938   1.000
    O118    O    0.89936   0.44059   0.95938   1.000
    O119    O    0.89936   0.94058   0.95938   1.000
    O120    O    0.14455   0.40370   0.99633   1.000
    O121    O    0.14454   0.90368   0.99633   1.000
    O122    O    0.64453   0.40370   0.99633   1.000
    O123    O    0.64452   0.90368   0.99633   1.000
    O124    O    0.46845   0.37981   0.14550   1.000
    O125    O    0.46846   0.87980   0.14550   1.000
    O126    O    0.96844   0.37982   0.14550   1.000
    O127    O    0.96843   0.87980   0.14550   1.000
loop_
    _geom_bond_atom_site_label_1
    _geom_bond_atom_site_label_2
    _geom_bond_distance
    _geom_bond_site_symmetry_2
    _ccdc_geom_bond_type
    Al12   O97       1.88166      .   S
    Al12   O93       1.86516      .   S
    Al12   O116      1.86533  1_554   S
    Al12   O120      1.88173  1_554   S
    Al11   O96       1.88167      .   S
    Al11   O92       1.86489      .   S
    Al11   O117      1.86549  1_544   S
    Al11   O121      1.88215  1_544   S
    O97    P22       1.53095  1_554   S
    O98    P19       1.53135  1_654   S
    O98    Al13      1.88168  1_554   S
    O96    P21       1.53103  1_554   S
    O99    P20       1.53136  1_654   S
    O99    Al14      1.88173  1_554   S
    P30    O127      1.57350      .   S
    P30    O119      1.53213  1_554   S
    P30    C79       1.80385  1_554   S
    P30    O121      1.53137  1_654   S
    P29    O126      1.57349      .   S
    P29    O118      1.53213  1_554   S
    P29    C78       1.80383  1_554   S
    P29    O120      1.53136  1_654   S
    P28    O125      1.57348      .   S
    P28    O117      1.53213  1_554   S
    P28    C77       1.80383  1_554   S
    P28    O123      1.53103  1_554   S
    P27    O124      1.57350      .   S
    P27    O116      1.53212  1_554   S
    P27    C76       1.80387  1_554   S
    P27    O122      1.53103  1_554   S
    H41    C69       1.09884      .   S
    H42    C70       1.09884      .   S
    H40    C68       1.09883      .   S
    H43    C71       1.09883      .   S
    C68    H44       1.09975      .   S
    C68    C78       1.53198  1_454   S
    C68    P19       1.80383  1_554   S
    C69    H45       1.09975      .   S
    C69    C79       1.53204  1_454   S
    C69    P20       1.80383  1_554   S
    C71    H47       1.09976      .   S
    C71    C77       1.53180  1_554   S
    C71    P22       1.80381  1_554   S
    C70    H46       1.09975      .   S
    C70    C76       1.53186  1_554   S
    C70    P21       1.80383  1_554   S
    O95    P22       1.53162  1_554   S
    O95    Al14      1.86503  1_554   S
    O92    P19       1.53162  1_554   S
    O93    P20       1.53207  1_554   S
    O94    P21       1.53207  1_554   S
    O94    Al13      1.86519  1_554   S
    O124   Al32      1.76142      .   S
    O125   Al0       1.76142      .   S
    O126   Al1       1.76141      .   S
    O127   Al2       1.76141      .   S
    Al0    O89       1.76115      .   S
    Al32   O88       1.76115      .   S
    Al1    O90       1.76115      .   S
    Al2    O91       1.76114      .   S
    O89    P16       1.57348      .   S
    O91    P18       1.57346      .   S
    O90    P17       1.57348      .   S
    O88    P15       1.57347      .   S
    H53    C73       1.10085      .   S
    H52    C72       1.09978      .   S
    H54    C74       1.09978      .   S
    H55    C75       1.09978      .   S
    O104   Al7       1.86530  1_545   S
    O104   P23       1.53194      .   S
    O105   Al8       1.86530      .   S
    O105   P24       1.53195      .   S
    O106   Al9       1.86530  1_545   S
    O106   P25       1.53194      .   S
    O107   Al10      1.86530      .   S
    O107   P26       1.53194      .   S
    C75    H51       1.09883      .   S
    C75    P26       1.80386      .   S
    C75    C65       1.53185      .   S
    C73    H49       1.09882      .   S
    C73    P24       1.80386      .   S
    C73    C67       1.53196  1_455   S
    C74    H50       1.09882      .   S
    C74    P25       1.80385      .   S
    C74    C64       1.53179      .   S
    C72    H48       1.09884      .   S
    C72    P23       1.80387      .   S
    C72    C66       1.53203  1_455   S
    P15    O86       1.53100      .   S
    P15    C64       1.80386      .   S
    P15    O80       1.53195      .   S
    P16    O87       1.53102      .   S
    P16    C65       1.80388      .   S
    P16    O81       1.53155      .   S
    P17    O84       1.53135  1_655   S
    P17    C66       1.80388      .   S
    P17    O82       1.53155      .   S
    P18    O85       1.53135  1_655   S
    P18    C67       1.80386      .   S
    P18    O83       1.53195      .   S
    O108   Al7       1.88149  1_545   S
    O108   P25       1.53099      .   S
    O109   Al8       1.88149      .   S
    O109   P26       1.53098      .   S
    O110   Al9       1.88147  1_545   S
    O110   P23       1.53132  1_655   S
    O111   Al10      1.88147      .   S
    O111   P24       1.53132  1_655   S
    Al7    O85       1.88190      .   S
    Al7    O81       1.86523      .   S
    Al10   O86       1.88148      .   S
    Al10   O82       1.86507      .   S
    Al9    O87       1.88191      .   S
    Al9    O83       1.86546      .   S
    Al8    O84       1.88148      .   S
    Al8    O80       1.86529      .   S
    P26    O115      1.57358      .   S
    P23    O112      1.57358      .   S
    P25    O114      1.57335      .   S
    P24    O113      1.57335      .   S
    H31    C64       1.09882      .   S
    H33    C65       1.09884      .   S
    H34    C66       1.09884      .   S
    H35    C67       1.09883      .   S
    C64    H36       1.09990      .   S
    C67    H39       1.09990      .   S
    C65    H37       1.09978      .   S
    C66    H38       1.09978      .   S
    O113   Al4       1.76124      .   S
    O114   Al5       1.76123      .   S
    O115   Al6       1.76115      .   S
    O112   Al3       1.76114      .   S
    Al4    O101      1.76142      .   S
    Al5    O102      1.76142      .   S
    Al6    O103      1.76133      .   S
    Al3    O100      1.76133      .   S
    O100   P19       1.57362      .   S
    O101   P20       1.57361      .   S
    O102   P21       1.57361      .   S
    O103   P22       1.57362      .   S
    H62    C78       1.10023      .   S
    H61    C77       1.10023      .   S
    H60    C76       1.09975      .   S
    H63    C79       1.09976      .   S
    O119   Al13      1.86545  1_565   S
    O118   Al14      1.86519      .   S
    C76    H56       1.09884      .   S
    C79    H59       1.09884      .   S
    C77    H57       1.09883      .   S
    C78    H58       1.09883      .   S
    O123   Al13      1.88216  1_565   S
    O122   Al14      1.88169      .   S
