# CIF file generated by openbabel 2.4.90, see http://openbabel.sf.net
data_I
_chemical_name_common ''
_cell_length_a 9.898
_cell_length_b 16.558
_cell_length_c 12.187
_cell_angle_alpha 89.965
_cell_angle_beta 89.971
_cell_angle_gamma 91.592
_space_group_name_H-M_alt 'P 1'
_space_group_name_Hall 'P 1'
loop_
    _symmetry_equiv_pos_as_xyz
    x,y,z
loop_
    _atom_site_label
    _atom_site_type_symbol
    _atom_site_fract_x
    _atom_site_fract_y
    _atom_site_fract_z
    _atom_site_occupancy
    Al0     Al   0.38229   0.93082   0.24998   1.000
    Al1     Al   0.88228   0.43084   0.24998   1.000
    Al2     Al   0.88227   0.93082   0.24998   1.000
    Al3     Al   0.11768   0.06915   0.74999   1.000
    Al4     Al   0.11768   0.56913   0.74998   1.000
    Al5     Al   0.61767   0.06915   0.74998   1.000
    Al6     Al   0.61766   0.56913   0.74999   1.000
    Al7     Al   0.24999   1.00000   0.49998   1.000
    Al8     Al   0.24999   0.49998   0.49998   1.000
    Al9     Al   0.74997   1.00000   0.49998   1.000
    Al10    Al   0.74997   0.49998   0.49998   1.000
    Al11    Al   0.24999   0.00000   0.00000   1.000
    Al12    Al   0.24999   0.49999   0.00000   1.000
    Al13    Al   0.74997   0.00000   0.99999   1.000
    Al14    Al   0.74997   0.49998   0.99997   1.000
    Al15    Al   0.38229   0.43084   0.24998   1.000
