# CIF file generated by openbabel 2.4.90, see http://openbabel.sf.net
data_I
_chemical_name_common ''
_cell_length_a 9.898
_cell_length_b 16.558
_cell_length_c 12.187
_cell_angle_alpha 89.965
_cell_angle_beta 89.971
_cell_angle_gamma 91.592
_space_group_name_H-M_alt 'P 1'
_space_group_name_Hall 'P 1'
loop_
    _symmetry_equiv_pos_as_xyz
    x,y,z
loop_
    _atom_site_label
    _atom_site_type_symbol
    _atom_site_fract_x
    _atom_site_fract_y
    _atom_site_fract_z
    _atom_site_occupancy
    Zr0     Zr   0.38229   0.43084   0.24998   1.000
    Zr1     Zr   0.38229   0.93082   0.24998   1.000
    Zr2     Zr   0.88228   0.43084   0.24998   1.000
    Zr3     Zr   0.88227   0.93082   0.24998   1.000
    Zr4     Zr   0.11768   0.06915   0.74999   1.000
    Zr5     Zr   0.11768   0.56913   0.74998   1.000
    Zr6     Zr   0.61767   0.06915   0.74998   1.000
    Zr7     Zr   0.61766   0.56913   0.74999   1.000
    Zr8     Zr   0.24999   1.00000   0.49998   1.000
    Zr9     Zr   0.24999   0.49998   0.49998   1.000
    Zr10    Zr   0.74997   1.00000   0.49998   1.000
    Zr11    Zr   0.74997   0.49998   0.49998   1.000
    Zr12    Zr   0.24999   0.00000   0.00000   1.000
    Zr13    Zr   0.24999   0.49999   0.00000   1.000
    Zr14    Zr   0.74997   0.00000   0.99999   1.000
    Zr15    Zr   0.74997   0.49998   0.99997   1.000
    N16     N    0.49998   0.24999   0.49998   1.000
    O17     O    0.41233   0.36014   0.51013   1.000
    O18     O    0.46283   0.32775   0.40110   1.000
    O19     O    0.58763   0.13985   0.48983   1.000
    O20     O    0.40133   0.14907   0.49902   1.000
    O21     O    0.59863   0.35091   0.50094   1.000
    O22     O    0.53713   0.17223   0.59886   1.000
    N23     N    0.49997   0.74998   0.49998   1.000
    O24     O    0.41232   0.86013   0.51011   1.000
    O25     O    0.53713   0.67222   0.59887   1.000
    O26     O    0.40132   0.64906   0.49902   1.000
    O27     O    0.46282   0.82774   0.40110   1.000
    O28     O    0.58763   0.63983   0.48983   1.000
    O29     O    0.59863   0.85091   0.50094   1.000
    N30     N    0.49998   0.24999   0.99998   1.000
    O31     O    0.41233   0.36014   0.98984   1.000
    O32     O    0.59861   0.35092   0.99907   1.000
    O33     O    0.46268   0.32766   0.09886   1.000
    O34     O    0.40135   0.14907   0.00090   1.000
    O35     O    0.53728   0.17232   0.90110   1.000
    O36     O    0.58763   0.13984   0.01013   1.000
    N37     N    0.99998   0.24999   0.99997   1.000
    O38     O    0.03729   0.17233   0.90110   1.000
    O39     O    0.90134   0.14907   0.00089   1.000
    O40     O    0.08764   0.13984   0.01011   1.000
    O41     O    0.91232   0.36014   0.98982   1.000
    O42     O    0.09862   0.35092   0.99907   1.000
    O43     O    0.96267   0.32766   0.09886   1.000
    N44     N    0.99998   0.24999   0.49998   1.000
    O45     O    0.03714   0.17223   0.59887   1.000
    O46     O    0.91232   0.36014   0.51011   1.000
    O47     O    0.90132   0.14907   0.49902   1.000
    O48     O    0.08764   0.13985   0.48983   1.000
    O49     O    0.96282   0.32775   0.40110   1.000
    O50     O    0.09864   0.35091   0.50094   1.000
    N51     N    0.49998   0.74998   0.99997   1.000
    O52     O    0.41233   0.86013   0.98983   1.000
    O53     O    0.40134   0.64905   0.00089   1.000
    O54     O    0.58762   0.63983   0.01010   1.000
    O55     O    0.59861   0.85091   0.99907   1.000
    O56     O    0.46267   0.82765   0.09886   1.000
    O57     O    0.53728   0.67231   0.90110   1.000
    N58     N    0.99998   0.74998   0.49997   1.000
    O59     O    0.03714   0.67222   0.59886   1.000
    O60     O    0.08764   0.63983   0.48983   1.000
    O61     O    0.90131   0.64906   0.49902   1.000
    O62     O    0.91232   0.86013   0.51012   1.000
    O63     O    0.96282   0.82774   0.40109   1.000
    O64     O    0.09864   0.85091   0.50094   1.000
    N65     N    0.99997   0.74998   0.99998   1.000
    O66     O    0.90133   0.64905   0.00089   1.000
    O67     O    0.91232   0.86013   0.98983   1.000
    O68     O    0.03729   0.67231   0.90110   1.000
    O69     O    0.09862   0.85091   0.99907   1.000
    O70     O    0.96266   0.82764   0.09886   1.000
    O71     O    0.08763   0.63983   0.01014   1.000
loop_
    _geom_bond_atom_site_label_1
    _geom_bond_atom_site_label_2
    _geom_bond_distance
    _geom_bond_site_symmetry_2
    _ccdc_geom_bond_type
    N16    O17       2.04505      .   S
    Zr9    O17       2.85760      .   S
    N16    O18       1.80834      .   S
    Zr0    O18       2.64836      .   S
    N16    O19       2.04505      .   S
    Zr10   O19       2.85761  1_565   S
    N16    O20       1.91191      .   S
    Zr8    O20       2.85151  1_565   S
    N16    O21       1.91191      .   S
    Zr11   O21       2.85151      .   S
    N16    O22       1.80831      .   S
    Zr6    O22       2.64837      .   S
    N23    O24       2.04513      .   S
    Zr8    O24       2.85783      .   S
    N23    O25       1.80838      .   S
    Zr7    O25       2.64840      .   S
    N23    O26       1.91191      .   S
    Zr9    O26       2.85151      .   S
    N23    O27       1.80833      .   S
    Zr1    O27       2.64836      .   S
    N23    O28       2.04505      .   S
    Zr11   O28       2.85761      .   S
    N23    O29       1.91203      .   S
    Zr10   O29       2.85184      .   S
    N30    O31       2.04502      .   S
    Zr13   O31       2.85766  1_554   S
    N30    O32       1.91184      .   S
    Zr15   O32       2.85156      .   S
    N30    O33       1.80833  1_556   S
    Zr0    O33       2.64980      .   S
    N30    O34       1.91184  1_556   S
    Zr12   O34       2.85155      .   S
    N30    O35       1.80834      .   S
    Zr6    O35       2.64980      .   S
    N30    O36       2.04501  1_556   S
    Zr14   O36       2.85761  1_556   S
    N37    O38       1.80831  1_655   S
    Zr4    O38       2.64974      .   S
    N37    O39       1.91189  1_556   S
    Zr14   O39       2.85160  1_556   S
    N37    O40       2.04504  1_656   S
    Zr12   O40       2.85764      .   S
    N37    O41       2.04504      .   S
    Zr15   O41       2.85766      .   S
    N37    O42       1.91190  1_655   S
    Zr13   O42       2.85163  1_554   S
    N37    O43       1.80838  1_556   S
    Zr2    O43       2.64985      .   S
    N44    O45       1.80840  1_655   S
    Zr4    O45       2.64842      .   S
    N44    O46       2.04508      .   S
    Zr11   O46       2.85766      .   S
    N44    O47       1.91195      .   S
    Zr10   O47       2.85154  1_565   S
    N44    O48       2.04509  1_655   S
    Zr8    O48       2.85766  1_565   S
    N44    O49       1.80834      .   S
    Zr2    O49       2.64838      .   S
    N44    O50       1.91196  1_655   S
    Zr9    O50       2.85155      .   S
    N51    O52       2.04510      .   S
    Zr12   O52       2.85790  1_544   S
    N51    O53       1.91184  1_556   S
    Zr13   O53       2.85155      .   S
    N51    O54       2.04501  1_556   S
    Zr15   O54       2.85764  1_556   S
    N51    O55       1.91196      .   S
    Zr14   O55       2.85191  1_545   S
    N51    O56       1.80837  1_556   S
    Zr1    O56       2.64983      .   S
    N51    O57       1.80828      .   S
    Zr7    O57       2.64971      .   S
    N58    O59       1.80835  1_655   S
    Zr5    O59       2.64843      .   S
    N58    O60       2.04509  1_655   S
    Zr9    O60       2.85767      .   S
    N58    O61       1.91196      .   S
    Zr11   O61       2.85155      .   S
    N58    O62       2.04518      .   S
    Zr10   O62       2.85789      .   S
    N58    O63       1.80833      .   S
    Zr3    O63       2.64835      .   S
    N58    O64       1.91206  1_655   S
    Zr8    O64       2.85187      .   S
    N65    O66       1.91189  1_556   S
    Zr15   O66       2.85163  1_556   S
    N65    O67       2.04515      .   S
    Zr14   O67       2.85793  1_545   S
    N65    O68       1.80837  1_655   S
    Zr5    O68       2.64983      .   S
    N65    O69       1.91201  1_655   S
    Zr12   O69       2.85196  1_544   S
    N65    O70       1.80834  1_556   S
    Zr3    O70       2.64982      .   S
    N65    O71       2.04505  1_656   S
    Zr13   O71       2.85765      .   S
