# CIF file generated by openbabel 2.4.90, see http://openbabel.sf.net
data_I
_chemical_name_common ''
_cell_length_a 19.848
_cell_length_b 19.84
_cell_length_c 15.506
_cell_angle_alpha 74.229
_cell_angle_beta 74.301
_cell_angle_gamma 82.636
_space_group_name_H-M_alt 'P 1'
_space_group_name_Hall 'P 1'
loop_
    _symmetry_equiv_pos_as_xyz
    x,y,z
loop_
    _atom_site_label
    _atom_site_type_symbol
    _atom_site_fract_x
    _atom_site_fract_y
    _atom_site_fract_z
    _atom_site_occupancy
    Zr0     Zr   0.46836   0.15899   0.12580   1.000
    Zr1     Zr   0.46836   0.65898   0.12580   1.000
    Zr2     Zr   0.96836   0.15899   0.12580   1.000
    Zr3     Zr   0.96836   0.65898   0.12580   1.000
    Zr4     Zr   0.01689   0.40155   0.16808   1.000
    Zr5     Zr   0.01689   0.90155   0.16808   1.000
    Zr6     Zr   0.51689   0.40155   0.16808   1.000
    Zr7     Zr   0.51690   0.90155   0.16808   1.000
    Zr8     Zr   0.05934   0.18216   0.41978   1.000
    Zr9     Zr   0.05934   0.68215   0.41978   1.000
    Zr10    Zr   0.55934   0.18216   0.41978   1.000
    Zr11    Zr   0.55935   0.68215   0.41978   1.000
    Zr12    Zr   0.34084   0.03168   0.37402   1.000
    Zr13    Zr   0.34084   0.53167   0.37402   1.000
    Zr14    Zr   0.84084   0.03168   0.37402   1.000
    Zr15    Zr   0.84084   0.53167   0.37402   1.000
    Zr16    Zr   0.09864   0.48317   0.33179   1.000
    Zr17    Zr   0.09864   0.98316   0.33179   1.000
    Zr18    Zr   0.59864   0.48317   0.33179   1.000
    Zr19    Zr   0.59864   0.98316   0.33179   1.000
    Zr20    Zr   0.31773   0.44055   0.08038   1.000
    Zr21    Zr   0.31773   0.94054   0.08038   1.000
    Zr22    Zr   0.81773   0.44055   0.08038   1.000
    Zr23    Zr   0.81774   0.94054   0.08038   1.000
    Zr24    Zr   0.03168   0.34102   0.87418   1.000
    Zr25    Zr   0.03168   0.84102   0.87418   1.000
    Zr26    Zr   0.53168   0.34102   0.87418   1.000
    Zr27    Zr   0.53168   0.84102   0.87418   1.000
    Zr28    Zr   0.48314   0.09845   0.83192   1.000
    Zr29    Zr   0.48314   0.59845   0.83192   1.000
    Zr30    Zr   0.98314   0.09845   0.83192   1.000
    Zr31    Zr   0.98314   0.59845   0.83192   1.000
    Zr32    Zr   0.44068   0.31786   0.58021   1.000
    Zr33    Zr   0.44068   0.81785   0.58021   1.000
    Zr34    Zr   0.94068   0.31786   0.58021   1.000
    Zr35    Zr   0.94069   0.81785   0.58021   1.000
    Zr36    Zr   0.15919   0.46834   0.62597   1.000
    Zr37    Zr   0.15919   0.96833   0.62597   1.000
    Zr38    Zr   0.65919   0.46834   0.62597   1.000
    Zr39    Zr   0.65919   0.96833   0.62597   1.000
    Zr40    Zr   0.40139   0.01685   0.66820   1.000
    Zr41    Zr   0.40139   0.51684   0.66820   1.000
    Zr42    Zr   0.90139   0.01685   0.66820   1.000
    Zr43    Zr   0.90140   0.51684   0.66820   1.000
    Zr44    Zr   0.18230   0.05946   0.91961   1.000
    Zr45    Zr   0.18230   0.55946   0.91961   1.000
    Zr46    Zr   0.68230   0.05946   0.91961   1.000
    Zr47    Zr   0.68230   0.55945   0.91961   1.000
    N48     N    0.60521   0.47914   0.83056   1.000
    O49     O    0.63774   0.50306   0.86459   1.000
    O50     O    0.55686   0.51905   0.83791   1.000
    O51     O    0.58427   0.42479   0.84936   1.000
    O52     O    0.62583   0.48230   0.75283   1.000
    N53     N    0.60521   0.97914   0.83056   1.000
    O54     O    0.63774   0.00306   0.86459   1.000
    O55     O    0.55686   0.01905   0.83791   1.000
    O56     O    0.58427   0.92478   0.84936   1.000
    O57     O    0.62583   0.98230   0.75283   1.000
    N58     N    0.15838   0.96861   0.12593   1.000
    O59     O    0.16707   0.00691   0.05290   1.000
    O60     O    0.13634   0.97983   0.19873   1.000
    O61     O    0.10988   0.93947   0.13531   1.000
    O62     O    0.21574   0.95084   0.11581   1.000
    N63     N    0.15837   0.46861   0.12593   1.000
    O64     O    0.16707   0.50691   0.05290   1.000
    O65     O    0.10988   0.43948   0.13531   1.000
    O66     O    0.13634   0.47983   0.19873   1.000
    O67     O    0.21573   0.45085   0.11581   1.000
    N68     N    0.65838   0.96861   0.12593   1.000
    O69     O    0.66708   0.00691   0.05290   1.000
    O70     O    0.63634   0.97983   0.19873   1.000
    O71     O    0.71574   0.95084   0.11581   1.000
    O72     O    0.60988   0.93947   0.13531   1.000
    N73     N    0.89483   0.02086   0.16943   1.000
    O74     O    0.91577   0.07522   0.15063   1.000
    O75     O    0.94317   0.98094   0.16208   1.000
    O76     O    0.87420   0.01770   0.24716   1.000
    O77     O    0.86229   0.99694   0.13540   1.000
    N78     N    0.89483   0.52086   0.16943   1.000
    O79     O    0.91577   0.57522   0.15063   1.000
    O80     O    0.94317   0.48095   0.16208   1.000
    O81     O    0.87420   0.51770   0.24716   1.000
    O82     O    0.86229   0.49694   0.13540   1.000
    N83     N    0.84166   0.53139   0.87406   1.000
    O84     O    0.83296   0.49310   0.94709   1.000
    O85     O    0.86370   0.52017   0.80126   1.000
    O86     O    0.78430   0.54916   0.88418   1.000
    O87     O    0.89015   0.56053   0.86469   1.000
    N88     N    0.84166   0.03139   0.87406   1.000
    O89     O    0.83296   0.99310   0.94709   1.000
    O90     O    0.86369   0.02018   0.80126   1.000
    O91     O    0.78430   0.04916   0.88418   1.000
    O92     O    0.89015   0.06053   0.86469   1.000
    N93     N    0.06155   0.17748   0.92191   1.000
    O94     O    0.10920   0.13795   0.91336   1.000
    O95     O    0.02759   0.15334   0.88942   1.000
    O96     O    0.05688   0.23807   0.90115   1.000
    O97     O    0.03243   0.16759   0.99960   1.000
    N98     N    0.06155   0.67747   0.92191   1.000
    O99     O    0.10920   0.63794   0.91336   1.000
    O100    O    0.05688   0.73807   0.90115   1.000
    O101    O    0.02759   0.65334   0.88942   1.000
    O102    O    0.03243   0.66759   0.99960   1.000
    N103    N    0.56155   0.17748   0.92191   1.000
    O104    O    0.60920   0.13795   0.91337   1.000
    O105    O    0.55688   0.23807   0.90116   1.000
    O106    O    0.53243   0.16759   0.99960   1.000
    O107    O    0.52759   0.15334   0.88942   1.000
    N108    N    0.56156   0.67747   0.92191   1.000
    O109    O    0.60920   0.63794   0.91337   1.000
    O110    O    0.55689   0.73807   0.90116   1.000
    O111    O    0.53243   0.66759   0.99960   1.000
    O112    O    0.52759   0.65333   0.88942   1.000
    N113    N    0.52091   0.39492   0.66931   1.000
    O114    O    0.48090   0.44322   0.66207   1.000
    O115    O    0.51781   0.37426   0.74711   1.000
    O116    O    0.49703   0.36239   0.63528   1.000
    O117    O    0.57528   0.41590   0.65053   1.000
    N118    N    0.52092   0.89491   0.66931   1.000
    O119    O    0.48090   0.94322   0.66207   1.000
    O120    O    0.51781   0.87426   0.74711   1.000
    O121    O    0.49703   0.86238   0.63528   1.000
    O122    O    0.57529   0.91589   0.65053   1.000
    N123    N    0.02091   0.39492   0.66931   1.000
    O124    O    0.98090   0.44322   0.66207   1.000
    O125    O    0.01781   0.37426   0.74711   1.000
    O126    O    0.99703   0.36238   0.63528   1.000
    O127    O    0.07528   0.41590   0.65053   1.000
    N128    N    0.02092   0.89491   0.66931   1.000
    O129    O    0.98090   0.94322   0.66207   1.000
    O130    O    0.01781   0.87426   0.74711   1.000
    O131    O    0.99703   0.86238   0.63528   1.000
    O132    O    0.07529   0.91589   0.65053   1.000
    N133    N    0.82214   0.43834   0.57854   1.000
    O134    O    0.76175   0.44290   0.59951   1.000
    O135    O    0.83180   0.46755   0.50069   1.000
    O136    O    0.84641   0.47237   0.61082   1.000
    O137    O    0.86196   0.39081   0.58678   1.000
    N138    N    0.82215   0.93834   0.57854   1.000
    O139    O    0.76176   0.94289   0.59951   1.000
    O140    O    0.84641   0.97237   0.61082   1.000
    O141    O    0.83180   0.96754   0.50069   1.000
    O142    O    0.86196   0.89080   0.58678   1.000
    N143    N    0.93849   0.82253   0.07808   1.000
    O144    O    0.96761   0.83242   0.00039   1.000
    O145    O    0.94316   0.76193   0.09883   1.000
    O146    O    0.89084   0.86206   0.08662   1.000
    O147    O    0.97245   0.84666   0.11058   1.000
    N148    N    0.93849   0.32253   0.07808   1.000
    O149    O    0.96761   0.33242   0.00039   1.000
    O150    O    0.94315   0.26194   0.09883   1.000
    O151    O    0.89084   0.36206   0.08662   1.000
    O152    O    0.97245   0.34667   0.11058   1.000
    N153    N    0.43848   0.32253   0.07808   1.000
    O154    O    0.44315   0.26194   0.09883   1.000
    O155    O    0.39083   0.36206   0.08662   1.000
    O156    O    0.47244   0.34667   0.11058   1.000
    O157    O    0.46761   0.33242   0.00039   1.000
    N158    N    0.10521   0.97914   0.83056   1.000
    O159    O    0.13774   0.00306   0.86459   1.000
    O160    O    0.08427   0.92478   0.84936   1.000
    O161    O    0.12583   0.98230   0.75283   1.000
    O162    O    0.05686   0.01906   0.83791   1.000
    N163    N    0.96856   0.15829   0.62594   1.000
    O164    O    0.00684   0.16693   0.55299   1.000
    O165    O    0.93937   0.10984   0.63535   1.000
    O166    O    0.97977   0.13621   0.69880   1.000
    O167    O    0.95089   0.21574   0.61571   1.000
    N168    N    0.96857   0.65829   0.62594   1.000
    O169    O    0.00684   0.66693   0.55299   1.000
    O170    O    0.93937   0.60983   0.63535   1.000
    O171    O    0.97977   0.63621   0.69880   1.000
    O172    O    0.95090   0.71573   0.61571   1.000
    N173    N    0.46856   0.15829   0.62595   1.000
    O174    O    0.50684   0.16693   0.55300   1.000
    O175    O    0.45089   0.21574   0.61572   1.000
    O176    O    0.43936   0.10984   0.63536   1.000
    O177    O    0.47976   0.13621   0.69881   1.000
    N178    N    0.53147   0.34173   0.37393   1.000
    O179    O    0.49318   0.33308   0.44694   1.000
    O180    O    0.56066   0.39018   0.36457   1.000
    O181    O    0.52026   0.36380   0.30098   1.000
    O182    O    0.54914   0.28428   0.38422   1.000
    N183    N    0.53147   0.84172   0.37393   1.000
    O184    O    0.49319   0.83308   0.44694   1.000
    O185    O    0.52027   0.86380   0.30098   1.000
    O186    O    0.56067   0.89017   0.36457   1.000
    O187    O    0.54914   0.78427   0.38422   1.000
    N188    N    0.03146   0.34173   0.37404   1.000
    O189    O    0.99318   0.33308   0.44700   1.000
    O190    O    0.06066   0.39018   0.36463   1.000
    O191    O    0.02026   0.36380   0.30119   1.000
    O192    O    0.04913   0.28428   0.38428   1.000
    N193    N    0.17788   0.06168   0.42143   1.000
    O194    O    0.23827   0.05712   0.40046   1.000
    O195    O    0.13807   0.10921   0.41321   1.000
    O196    O    0.16823   0.03247   0.49928   1.000
    O197    O    0.15362   0.02764   0.38917   1.000
    N198    N    0.17789   0.56167   0.42143   1.000
    O199    O    0.23828   0.55712   0.40046   1.000
    O200    O    0.13807   0.60921   0.41321   1.000
    O201    O    0.16823   0.53247   0.49928   1.000
    O202    O    0.15362   0.52764   0.38917   1.000
    N203    N    0.47911   0.10509   0.33069   1.000
    O204    O    0.50300   0.13763   0.36472   1.000
    O205    O    0.48222   0.12575   0.25289   1.000
    O206    O    0.51913   0.05679   0.33792   1.000
    O207    O    0.42474   0.08411   0.34947   1.000
    N208    N    0.43849   0.82253   0.07808   1.000
    O209    O    0.44316   0.76193   0.09883   1.000
    O210    O    0.39084   0.86206   0.08662   1.000
    O211    O    0.47245   0.84666   0.11058   1.000
    O212    O    0.46761   0.83242   0.00039   1.000
    N213    N    0.97911   0.10509   0.33069   1.000
    O214    O    0.98222   0.12575   0.25289   1.000
    O215    O    0.92474   0.08411   0.34947   1.000
    O216    O    0.01913   0.05679   0.33792   1.000
    O217    O    0.00300   0.13763   0.36472   1.000
    N218    N    0.97912   0.60509   0.33069   1.000
    O219    O    0.98222   0.62575   0.25289   1.000
    O220    O    0.92475   0.58411   0.34947   1.000
    O221    O    0.01913   0.55679   0.33792   1.000
    O222    O    0.00300   0.63762   0.36472   1.000
    N223    N    0.46856   0.65829   0.62595   1.000
    O224    O    0.43937   0.60983   0.63536   1.000
    O225    O    0.50685   0.66693   0.55300   1.000
    O226    O    0.45089   0.71573   0.61572   1.000
    O227    O    0.47977   0.63621   0.69881   1.000
    N228    N    0.65838   0.46861   0.12593   1.000
    O229    O    0.63634   0.47983   0.19873   1.000
    O230    O    0.66708   0.50691   0.05290   1.000
    O231    O    0.60988   0.43948   0.13531   1.000
    O232    O    0.71574   0.45085   0.11581   1.000
    N233    N    0.67789   0.56167   0.42143   1.000
    O234    O    0.63808   0.60921   0.41321   1.000
    O235    O    0.66824   0.53247   0.49928   1.000
    O236    O    0.65362   0.52764   0.38917   1.000
    O237    O    0.73828   0.55712   0.40046   1.000
    N238    N    0.39482   0.52086   0.16942   1.000
    O239    O    0.44317   0.48095   0.16207   1.000
    O240    O    0.41577   0.57522   0.15061   1.000
    O241    O    0.37420   0.51770   0.24716   1.000
    O242    O    0.36229   0.49694   0.13539   1.000
    N243    N    0.39482   0.02086   0.16942   1.000
    O244    O    0.44317   0.98094   0.16207   1.000
    O245    O    0.41577   0.07522   0.15061   1.000
    O246    O    0.37420   0.01770   0.24716   1.000
    O247    O    0.36229   0.99694   0.13539   1.000
    N248    N    0.10521   0.47914   0.83056   1.000
    O249    O    0.08426   0.42479   0.84936   1.000
    O250    O    0.12583   0.48230   0.75283   1.000
    O251    O    0.13774   0.50306   0.86459   1.000
    O252    O    0.05686   0.51905   0.83791   1.000
    N253    N    0.34166   0.03139   0.87406   1.000
    O254    O    0.39015   0.06053   0.86469   1.000
    O255    O    0.36369   0.02018   0.80126   1.000
    O256    O    0.33296   0.99310   0.94709   1.000
    O257    O    0.28429   0.04916   0.88418   1.000
    N258    N    0.34166   0.53139   0.87406   1.000
    O259    O    0.39015   0.56053   0.86469   1.000
    O260    O    0.36369   0.52017   0.80126   1.000
    O261    O    0.33296   0.49310   0.94709   1.000
    O262    O    0.28430   0.54916   0.88418   1.000
    N263    N    0.03147   0.84172   0.37404   1.000
    O264    O    0.99319   0.83308   0.44700   1.000
    O265    O    0.06067   0.89017   0.36463   1.000
    O266    O    0.02026   0.86380   0.30119   1.000
    O267    O    0.04914   0.78427   0.38428   1.000
    N268    N    0.47912   0.60509   0.33069   1.000
    O269    O    0.48222   0.62575   0.25289   1.000
    O270    O    0.42474   0.58411   0.34947   1.000
    O271    O    0.50300   0.63762   0.36472   1.000
    O272    O    0.51913   0.55678   0.33792   1.000
    N273    N    0.67789   0.06168   0.42143   1.000
    O274    O    0.63807   0.10921   0.41321   1.000
    O275    O    0.66823   0.03247   0.49928   1.000
    O276    O    0.65362   0.02764   0.38917   1.000
    O277    O    0.73828   0.05712   0.40046   1.000
    N278    N    0.32214   0.43834   0.57854   1.000
    O279    O    0.33179   0.46755   0.50069   1.000
    O280    O    0.34641   0.47237   0.61082   1.000
    O281    O    0.36195   0.39081   0.58678   1.000
    O282    O    0.26175   0.44290   0.59951   1.000
    N283    N    0.32214   0.93834   0.57854   1.000
    O284    O    0.33179   0.96754   0.50069   1.000
    O285    O    0.34641   0.97237   0.61082   1.000
    O286    O    0.36196   0.89080   0.58678   1.000
    O287    O    0.26175   0.94289   0.59951   1.000
loop_
    _geom_bond_atom_site_label_1
    _geom_bond_atom_site_label_2
    _geom_bond_distance
    _geom_bond_site_symmetry_2
    _ccdc_geom_bond_type
    N48    O49       1.14875      .   S
    Zr47   O49       1.98560      .   S
    N48    O50       1.16440      .   S
    Zr29   O50       2.00847      .   S
    N48    O51       1.13986      .   S
    Zr26   O51       1.96951      .   S
    N48    O52       1.15015      .   S
    Zr38   O52       1.98217      .   S
    N53    O54       1.14876  1_565   S
    Zr46   O54       1.98564      .   S
    N53    O55       1.16447  1_565   S
    Zr28   O55       2.00854      .   S
    N53    O56       1.13989      .   S
    Zr27   O56       1.96954      .   S
    N53    O57       1.15015      .   S
    Zr39   O57       1.98220      .   S
    N58    O59       1.16171  1_565   S
    Zr44   O59       2.00536  1_556   S
    N58    O60       1.16599      .   S
    Zr17   O60       2.01176      .   S
    N58    O61       1.14148      .   S
    Zr5    O61       1.96758      .   S
    N58    O62       1.12944      .   S
    Zr21   O62       1.94808      .   S
    N63    O64       1.16168      .   S
    Zr45   O64       2.00533  1_556   S
    N63    O65       1.14148      .   S
    Zr4    O65       1.96758      .   S
    N63    O66       1.16600      .   S
    Zr16   O66       2.01177      .   S
    N63    O67       1.12941      .   S
    Zr20   O67       1.94807      .   S
    N68    O69       1.16171  1_565   S
    Zr46   O69       2.00536  1_556   S
    N68    O70       1.16599      .   S
    Zr19   O70       2.01175      .   S
    N68    O71       1.12943      .   S
    Zr23   O71       1.94808      .   S
    N68    O72       1.14148      .   S
    Zr7    O72       1.96759      .   S
    N73    O74       1.13992      .   S
    Zr2    O74       1.96959      .   S
    N73    O75       1.16446  1_545   S
    Zr5    O75       2.00851  1_455   S
    N73    O76       1.15017      .   S
    Zr14   O76       1.98224      .   S
    N73    O77       1.14875  1_545   S
    Zr23   O77       1.98561      .   S
    N78    O79       1.13990      .   S
    Zr3    O79       1.96957      .   S
    N78    O80       1.16439      .   S
    Zr4    O80       2.00844  1_455   S
    N78    O81       1.15017      .   S
    Zr15   O81       1.98220      .   S
    N78    O82       1.14875      .   S
    Zr22   O82       1.98559      .   S
    N83    O84       1.16168      .   S
    Zr22   O84       2.00534  1_554   S
    N83    O85       1.16598      .   S
    Zr43   O85       2.01174      .   S
    N83    O86       1.12941      .   S
    Zr47   O86       1.94806      .   S
    N83    O87       1.14146      .   S
    Zr31   O87       1.96757      .   S
    N88    O89       1.16171  1_545   S
    Zr23   O89       2.00536  1_554   S
    N88    O90       1.16597      .   S
    Zr42   O90       2.01174      .   S
    N88    O91       1.12943      .   S
    Zr46   O91       1.94808      .   S
    N88    O92       1.14146      .   S
    Zr30   O92       1.96755      .   S
    N93    O94       1.15137      .   S
    Zr44   O94       1.98849      .   S
    N93    O95       1.15552      .   S
    Zr30   O95       1.98966  1_655   S
    N93    O96       1.15529      .   S
    Zr24   O96       1.99598      .   S
    N93    O97       1.16087      .   S
    Zr2    O97       2.00074  1_654   S
    N98    O99       1.15137      .   S
    Zr45   O99       1.98850      .   S
    N98    O100      1.15530      .   S
    Zr25   O100      1.99599      .   S
    N98    O101      1.15552      .   S
    Zr31   O101      1.98965  1_655   S
    N98    O102      1.16087      .   S
    Zr3    O102      2.00074  1_654   S
    N103   O104      1.15136      .   S
    Zr46   O104      1.98849      .   S
    N103   O105      1.15529      .   S
    Zr26   O105      1.99598      .   S
    N103   O106      1.16084      .   S
    Zr0    O106      2.00074  1_554   S
    N103   O107      1.15558      .   S
    Zr28   O107      1.98975      .   S
    N108   O109      1.15137      .   S
    Zr47   O109      1.98850      .   S
    N108   O110      1.15529      .   S
    Zr27   O110      1.99597      .   S
    N108   O111      1.16084      .   S
    Zr1    O111      2.00074  1_554   S
    N108   O112      1.15558      .   S
    Zr29   O112      1.98975      .   S
    N113   O114      1.16468      .   S
    Zr41   O114      2.00900      .   S
    N113   O115      1.15089      .   S
    Zr26   O115      1.98341      .   S
    N113   O116      1.14841      .   S
    Zr32   O116      1.98503      .   S
    N113   O117      1.14096      .   S
    Zr38   O117      1.97140      .   S
    N118   O119      1.16474      .   S
    Zr40   O119      2.00917  1_545   S
    N118   O120      1.15089      .   S
    Zr27   O120      1.98341      .   S
    N118   O121      1.14841      .   S
    Zr33   O121      1.98504      .   S
    N118   O122      1.14097      .   S
    Zr39   O122      1.97141      .   S
    N123   O124      1.16466  1_455   S
    Zr43   O124      2.00897      .   S
    N123   O125      1.15089      .   S
    Zr24   O125      1.98339      .   S
    N123   O126      1.14840  1_455   S
    Zr34   O126      1.98498      .   S
    N123   O127      1.14095      .   S
    Zr36   O127      1.97139      .   S
    N128   O129      1.16472  1_455   S
    Zr42   O129      2.00915  1_545   S
    N128   O130      1.15089      .   S
    Zr25   O130      1.98339      .   S
    N128   O131      1.14840  1_455   S
    Zr35   O131      1.98499      .   S
    N128   O132      1.14095      .   S
    Zr37   O132      1.97139      .   S
    N133   O134      1.15232      .   S
    Zr38   O134      1.99106      .   S
    N133   O135      1.16308      .   S
    Zr15   O135      2.00453      .   S
    N133   O136      1.15582      .   S
    Zr43   O136      1.99004      .   S
    N133   O137      1.15249      .   S
    Zr34   O137      1.99028      .   S
    N138   O139      1.15232      .   S
    Zr39   O139      1.99106      .   S
    N138   O140      1.15583      .   S
    Zr42   O140      1.99005  1_545   S
    N138   O141      1.16309      .   S
    Zr14   O141      2.00460  1_545   S
    N138   O142      1.15249      .   S
    Zr35   O142      1.99029      .   S
    N143   O144      1.16087      .   S
    Zr25   O144      2.00077  1_456   S
    N143   O145      1.15528      .   S
    Zr3    O145      1.99597      .   S
    N143   O146      1.15138      .   S
    Zr23   O146      1.98852      .   S
    N143   O147      1.15554      .   S
    Zr5    O147      1.98965  1_455   S
    N148   O149      1.16087      .   S
    Zr24   O149      2.00078  1_456   S
    N148   O150      1.15528      .   S
    Zr2    O150      1.99596      .   S
    N148   O151      1.15138      .   S
    Zr22   O151      1.98853      .   S
    N148   O152      1.15554      .   S
    Zr4    O152      1.98965  1_455   S
    N153   O154      1.15528      .   S
    Zr0    O154      1.99597      .   S
    N153   O155      1.15138      .   S
    Zr20   O155      1.98853      .   S
    N153   O156      1.15556      .   S
    Zr6    O156      1.98970      .   S
    N153   O157      1.16088      .   S
    Zr26   O157      2.00081  1_556   S
    N158   O159      1.14876  1_565   S
    Zr44   O159      1.98564      .   S
    N158   O160      1.13989      .   S
    Zr25   O160      1.96953      .   S
    N158   O161      1.15015      .   S
    Zr37   O161      1.98221      .   S
    N158   O162      1.16445  1_565   S
    Zr30   O162      2.00850  1_655   S
    N163   O164      1.16151  1_655   S
    Zr8    O164      2.00508      .   S
    N163   O165      1.14111      .   S
    Zr42   O165      1.96693      .   S
    N163   O166      1.16603      .   S
    Zr30   O166      2.01188      .   S
    N163   O167      1.12986      .   S
    Zr34   O167      1.94876      .   S
    N168   O169      1.16151  1_655   S
    Zr9    O169      2.00508      .   S
    N168   O170      1.14112      .   S
    Zr43   O170      1.96692      .   S
    N168   O171      1.16603      .   S
    Zr31   O171      2.01189      .   S
    N168   O172      1.12986      .   S
    Zr35   O172      1.94875      .   S
    N173   O174      1.16158      .   S
    Zr10   O174      2.00516      .   S
    N173   O175      1.12986      .   S
    Zr32   O175      1.94876      .   S
    N173   O176      1.14110      .   S
    Zr40   O176      1.96696      .   S
    N173   O177      1.16596      .   S
    Zr28   O177      2.01181      .   S
    N178   O179      1.16226      .   S
    Zr32   O179      2.00586      .   S
    N178   O180      1.14132      .   S
    Zr18   O180      1.96706      .   S
    N178   O181      1.16723      .   S
    Zr6    O181      2.00874      .   S
    N178   O182      1.12982      .   S
    Zr10   O182      1.94879      .   S
    N183   O184      1.16226      .   S
    Zr33   O184      2.00586      .   S
    N183   O185      1.16723      .   S
    Zr7    O185      2.00874      .   S
    N183   O186      1.14132      .   S
    Zr19   O186      1.96705      .   S
    N183   O187      1.12981      .   S
    Zr11   O187      1.94879      .   S
    N188   O189      1.16155  1_455   S
    Zr34   O189      2.00507      .   S
    N188   O190      1.14110      .   S
    Zr16   O190      1.96696      .   S
    N188   O191      1.16597      .   S
    Zr4    O191      2.01173      .   S
    N188   O192      1.12986      .   S
    Zr8    O192      1.94876      .   S
    N193   O194      1.15232      .   S
    Zr12   O194      1.99105      .   S
    N193   O195      1.15247      .   S
    Zr8    O195      1.99027      .   S
    N193   O196      1.16311      .   S
    Zr37   O196      2.00481  1_565   S
    N193   O197      1.15574      .   S
    Zr17   O197      1.98999  1_565   S
    N198   O199      1.15231      .   S
    Zr13   O199      1.99105      .   S
    N198   O200      1.15247      .   S
    Zr9    O200      1.99027      .   S
    N198   O201      1.16309      .   S
    Zr36   O201      2.00473      .   S
    N198   O202      1.15572      .   S
    Zr16   O202      1.98996      .   S
    N203   O204      1.14840      .   S
    Zr10   O204      1.98502      .   S
    N203   O205      1.15091      .   S
    Zr0    O205      1.98351      .   S
    N203   O206      1.16476      .   S
    Zr19   O206      2.00921  1_565   S
    N203   O207      1.14096      .   S
    Zr12   O207      1.97138      .   S
    N208   O209      1.15528      .   S
    Zr1    O209      1.99597      .   S
    N208   O210      1.15138      .   S
    Zr21   O210      1.98852      .   S
    N208   O211      1.15556      .   S
    Zr7    O211      1.98970      .   S
    N208   O212      1.16088      .   S
    Zr27   O212      2.00081  1_556   S
    N213   O214      1.15091      .   S
    Zr2    O214      1.98349      .   S
    N213   O215      1.14094      .   S
    Zr14   O215      1.97136      .   S
    N213   O216      1.16474  1_655   S
    Zr17   O216      2.00918  1_565   S
    N213   O217      1.14840  1_655   S
    Zr8    O217      1.98497      .   S
    N218   O219      1.15091      .   S
    Zr3    O219      1.98349      .   S
    N218   O220      1.14094      .   S
    Zr15   O220      1.97138      .   S
    N218   O221      1.16468  1_655   S
    Zr16   O221      2.00900      .   S
    N218   O222      1.14840  1_655   S
    Zr9    O222      1.98498      .   S
    N223   O224      1.14110      .   S
    Zr41   O224      1.96695      .   S
    N223   O225      1.16158      .   S
    Zr11   O225      2.00516      .   S
    N223   O226      1.12986      .   S
    Zr33   O226      1.94875      .   S
    N223   O227      1.16596      .   S
    Zr29   O227      2.01181      .   S
    N228   O229      1.16600      .   S
    Zr18   O229      2.01176      .   S
    N228   O230      1.16167      .   S
    Zr47   O230      2.00533  1_556   S
    N228   O231      1.14148      .   S
    Zr6    O231      1.96760      .   S
    N228   O232      1.12942      .   S
    Zr22   O232      1.94807      .   S
    N233   O234      1.15247      .   S
    Zr11   O234      1.99027      .   S
    N233   O235      1.16309      .   S
    Zr38   O235      2.00473      .   S
    N233   O236      1.15572      .   S
    Zr18   O236      1.98997      .   S
    N233   O237      1.15231      .   S
    Zr15   O237      1.99105      .   S
    N238   O239      1.16441      .   S
    Zr6    O239      2.00849      .   S
    N238   O240      1.13989      .   S
    Zr1    O240      1.96962      .   S
    N238   O241      1.15024      .   S
    Zr13   O241      1.98227      .   S
    N238   O242      1.14869      .   S
    Zr20   O242      1.98553      .   S
    N243   O244      1.16448  1_545   S
    Zr7    O244      2.00857      .   S
    N243   O245      1.13991      .   S
    Zr0    O245      1.96963      .   S
    N243   O246      1.15024      .   S
    Zr12   O246      1.98231      .   S
    N243   O247      1.14869  1_545   S
    Zr21   O247      1.98556      .   S
    N248   O249      1.13986      .   S
    Zr24   O249      1.96951      .   S
    N248   O250      1.15015      .   S
    Zr36   O250      1.98217      .   S
    N248   O251      1.14875      .   S
    Zr45   O251      1.98561      .   S
    N248   O252      1.16438      .   S
    Zr31   O252      2.00842  1_655   S
    N253   O254      1.14146      .   S
    Zr28   O254      1.96755      .   S
    N253   O255      1.16597      .   S
    Zr40   O255      2.01174      .   S
    N253   O256      1.16171  1_545   S
    Zr21   O256      2.00536  1_554   S
    N253   O257      1.12943      .   S
    Zr44   O257      1.94808      .   S
    N258   O259      1.14146      .   S
    Zr29   O259      1.96756      .   S
    N258   O260      1.16598      .   S
    Zr41   O260      2.01174      .   S
    N258   O261      1.16168      .   S
    Zr20   O261      2.00533  1_554   S
    N258   O262      1.12941      .   S
    Zr45   O262      1.94806      .   S
    N263   O264      1.16155  1_455   S
    Zr35   O264      2.00507      .   S
    N263   O265      1.14109      .   S
    Zr17   O265      1.96695      .   S
    N263   O266      1.16597      .   S
    Zr5    O266      2.01174      .   S
    N263   O267      1.12986      .   S
    Zr9    O267      1.94876      .   S
    N268   O269      1.15090      .   S
    Zr1    O269      1.98351      .   S
    N268   O270      1.14096      .   S
    Zr13   O270      1.97139      .   S
    N268   O271      1.14840      .   S
    Zr11   O271      1.98503      .   S
    N268   O272      1.16470      .   S
    Zr18   O272      2.00902      .   S
    N273   O274      1.15247      .   S
    Zr10   O274      1.99027      .   S
    N273   O275      1.16310      .   S
    Zr39   O275      2.00480  1_565   S
    N273   O276      1.15574      .   S
    Zr19   O276      1.98999  1_565   S
    N273   O277      1.15232      .   S
    Zr14   O277      1.99105      .   S
    N278   O279      1.16308      .   S
    Zr13   O279      2.00453      .   S
    N278   O280      1.15582      .   S
    Zr41   O280      1.99004      .   S
    N278   O281      1.15249      .   S
    Zr32   O281      1.99028      .   S
    N278   O282      1.15232      .   S
    Zr36   O282      1.99106      .   S
    N283   O284      1.16309      .   S
    Zr12   O284      2.00460  1_545   S
    N283   O285      1.15584      .   S
    Zr40   O285      1.99005  1_545   S
    N283   O286      1.15249      .   S
    Zr33   O286      1.99029      .   S
    N283   O287      1.15232      .   S
    Zr37   O287      1.99106      .   S
