# CIF file generated by openbabel 2.4.90, see http://openbabel.sf.net
data_I
_chemical_name_common 'Cd3H6(C2O3)4'
_cell_length_a 9.6555
_cell_length_b 14.871
_cell_length_c 15.415
_cell_angle_alpha 89.996
_cell_angle_beta 89.972
_cell_angle_gamma 89.963
_space_group_name_H-M_alt 'P 1'
_space_group_name_Hall 'P 1'
loop_
    _symmetry_equiv_pos_as_xyz
    x,y,z
loop_
    _atom_site_label
    _atom_site_type_symbol
    _atom_site_fract_x
    _atom_site_fract_y
    _atom_site_fract_z
    _atom_site_occupancy
    Cd0     Cd   0.62563   0.87824   0.49906   1.000
    Cd1     Cd   0.87621   0.99346   0.38199   1.000
    Cd2     Cd   0.75664   0.73127   0.77957   1.000
    Cd3     Cd   0.62512   0.12228   0.49885   1.000
    Cd4     Cd   0.87623   0.00676   0.61588   1.000
    Cd5     Cd   0.75651   0.26856   0.21787   1.000
    Cd6     Cd   0.37396   0.62174   0.99899   1.000
    Cd7     Cd   0.12337   0.50657   0.88221   1.000
    Cd8     Cd   0.24317   0.76869   0.27945   1.000
    Cd9     Cd   0.37459   0.37777   0.99884   1.000
    Cd10    Cd   0.12318   0.49324   0.11606   1.000
    Cd11    Cd   0.24290   0.23155   0.71788   1.000
    H12     H    0.70193   0.69670   0.42918   1.000
    H13     H    0.79796   0.90547   0.21440   1.000
    H14     H    0.92488   0.67911   0.49034   1.000
    H15     H    0.02913   0.81718   0.54972   1.000
    H16     H    0.57583   0.96911   0.19224   1.000
    H17     H    0.47553   0.04508   0.32055   1.000
    H18     H    0.70203   0.30358   0.56889   1.000
    H19     H    0.79808   0.09392   0.78431   1.000
    H20     H    0.92434   0.32097   0.50700   1.000
    H21     H    0.02849   0.18281   0.44736   1.000
    H22     H    0.57569   0.03052   0.80597   1.000
    H23     H    0.47593   0.95525   0.67741   1.000
    H24     H    0.29767   0.80317   0.92894   1.000
    H25     H    0.20174   0.59469   0.71454   1.000
    H26     H    0.07489   0.82094   0.99038   1.000
    H27     H    0.97042   0.68305   0.04999   1.000
    H28     H    0.42369   0.53100   0.69220   1.000
    H29     H    0.52408   0.45497   0.82044   1.000
    H30     H    0.29771   0.19651   0.06897   1.000
    H31     H    0.20146   0.40603   0.28441   1.000
    H32     H    0.07542   0.17908   0.00717   1.000
    H33     H    0.97146   0.31722   0.94739   1.000
    H34     H    0.42385   0.46944   0.30588   1.000
    H35     H    0.52349   0.54476   0.17724   1.000
    C36     C    0.79333   0.73626   0.59063   1.000
    C37     C    0.86064   0.73914   0.50057   1.000
    C38     C    0.95366   0.82372   0.49623   1.000
    C39     C    0.04062   0.82156   0.41199   1.000
    C40     C    0.70968   0.07647   0.23776   1.000
    C41     C    0.64061   0.98436   0.24888   1.000
    C42     C    0.54784   0.98844   0.33077   1.000
    C43     C    0.45583   0.90335   0.33511   1.000
    C44     C    0.79293   0.26376   0.40683   1.000
    C45     C    0.86019   0.26093   0.49693   1.000
    C46     C    0.95335   0.17633   0.50109   1.000
    C47     C    0.04085   0.17841   0.58505   1.000
    C48     C    0.70986   0.92345   0.75997   1.000
    C49     C    0.64071   0.01561   0.74929   1.000
    C50     C    0.54816   0.01192   0.66737   1.000
    C51     C    0.45592   0.09696   0.66324   1.000
    C52     C    0.20644   0.76375   0.09057   1.000
    C53     C    0.13903   0.76086   0.00057   1.000
    C54     C    0.04586   0.67633   0.99646   1.000
    C55     C    0.95881   0.67837   0.91228   1.000
    C56     C    0.28996   0.42358   0.73782   1.000
    C57     C    0.35897   0.51570   0.74889   1.000
    C58     C    0.45180   0.51161   0.83069   1.000
    C59     C    0.54385   0.59668   0.83497   1.000
    C60     C    0.20692   0.23627   0.90698   1.000
    C61     C    0.13957   0.23911   0.99710   1.000
    C62     C    0.04643   0.32372   0.00114   1.000
    C63     C    0.95853   0.32171   0.08501   1.000
    C64     C    0.28969   0.57652   0.25999   1.000
    C65     C    0.35878   0.48437   0.24927   1.000
    C66     C    0.45127   0.48809   0.16727   1.000
    C67     C    0.54351   0.40305   0.16315   1.000
    O68     O    0.67244   0.76953   0.60068   1.000
    O69     O    0.86638   0.70365   0.65126   1.000
    O70     O    0.76066   0.74993   0.43198   1.000
    O71     O    0.87321   0.90244   0.50502   1.000
    O72     O    0.04043   0.88792   0.35968   1.000
    O73     O    0.11346   0.75163   0.40053   1.000
    O74     O    0.83032   0.08957   0.26954   1.000
    O75     O    0.63882   0.13654   0.20012   1.000
    O76     O    0.73912   0.91357   0.26525   1.000
    O77     O    0.62937   0.00137   0.40554   1.000
    O78     O    0.45662   0.85235   0.40145   1.000
    O79     O    0.37911   0.89083   0.26953   1.000
    O80     O    0.67224   0.23041   0.39653   1.000
    O81     O    0.86623   0.29632   0.34629   1.000
    O82     O    0.76052   0.25019   0.56583   1.000
    O83     O    0.87279   0.09771   0.49257   1.000
    O84     O    0.04092   0.11199   0.63730   1.000
    O85     O    0.11379   0.24825   0.59637   1.000
    O86     O    0.83102   0.91063   0.72877   1.000
    O87     O    0.63845   0.86312   0.79673   1.000
    O88     O    0.73923   0.08642   0.73342   1.000
    O89     O    0.62983   0.99919   0.59255   1.000
    O90     O    0.45611   0.14784   0.59678   1.000
    O91     O    0.37949   0.10950   0.72903   1.000
    O92     O    0.32734   0.73049   0.10054   1.000
    O93     O    0.13346   0.79641   0.15124   1.000
    O94     O    0.23890   0.74996   0.93190   1.000
    O95     O    0.12622   0.59760   0.00000   1.000
    O96     O    0.95853   0.61176   0.86026   1.000
    O97     O    0.88636   0.74843   0.90058   1.000
    O98     O    0.16933   0.41045   0.76968   1.000
    O99     O    0.36088   0.36352   0.70016   1.000
    O100    O    0.26042   0.58646   0.76540   1.000
    O101    O    0.37028   0.49870   0.90553   1.000
    O102    O    0.54302   0.64769   0.90128   1.000
    O103    O    0.62063   0.60917   0.76936   1.000
    O104    O    0.32763   0.26959   0.89659   1.000
    O105    O    0.13361   0.20369   0.84650   1.000
    O106    O    0.23917   0.24988   0.06595   1.000
    O107    O    0.12702   0.40233   0.99265   1.000
    O108    O    0.95810   0.38818   0.13720   1.000
    O109    O    0.88562   0.25185   0.09631   1.000
    O110    O    0.16849   0.58936   0.22896   1.000
    O111    O    0.36126   0.63683   0.29662   1.000
    O112    O    0.26029   0.41354   0.23347   1.000
    O113    O    0.36954   0.50079   0.09252   1.000
    O114    O    0.54360   0.35223   0.09666   1.000
    O115    O    0.61968   0.39047   0.22900   1.000
loop_
    _geom_bond_atom_site_label_1
    _geom_bond_atom_site_label_2
    _geom_bond_distance
    _geom_bond_site_symmetry_2
    _ccdc_geom_bond_type
    O95    Cd7       2.26504  1_554   S
    O95    C54       1.40526  1_554   S
    C53    C52       1.53333      .   S
    C53    O94       1.44058  1_554   S
    C53    H26       1.09810  1_554   S
    C53    C54       1.54760  1_554   S
    C62    C63       1.54636  1_455   S
    C62    H33       1.10480  1_454   S
    C62    O107      1.41082  1_554   S
    C62    C61       1.54736  1_554   S
    H32    C61       1.09792  1_554   S
    H27    C54       1.10477  1_654   S
    O106   H30       0.97515      .   S
    O106   C61       1.44153  1_554   S
    C63    O109      1.26731      .   S
    C63    O108      1.27453      .   S
    C52    O92       1.27687      .   S
    C52    O93       1.26729      .   S
    O113   C66       1.40958      .   S
    O113   Cd6       2.30552  1_554   S
    O109   Cd5       2.26378      .   S
    O114   C67       1.27348      .   S
    O114   Cd9       2.25451  1_554   S
    O92    Cd6       2.29515  1_554   S
    Cd10   O108      2.25630  1_455   S
    Cd10   O110      2.29459      .   S
    O93    Cd8       2.28028      .   S
    C67    C66       1.54758      .   S
    C67    O115      1.26757      .   S
    C66    H35       1.10490      .   S
    C66    C65       1.54827      .   S
    H16    C41       1.09799      .   S
    O75    Cd5       2.28559      .   S
    O75    C40       1.26583      .   S
    H13    O76       0.97533      .   S
    Cd5    O115      2.24908      .   S
    Cd5    O81       2.28349      .   S
    O110   C64       1.27876      .   S
    O112   C65       1.44032      .   S
    O112   H31       0.97535      .   S
    C40    C41       1.53344  1_545   S
    C40    O74       1.27888      .   S
    C41    O76       1.44075      .   S
    C41    C42       1.54872      .   S
    C65    C64       1.53265      .   S
    C65    H34       1.09807      .   S
    C64    O111      1.26573      .   S
    O79    Cd8       2.24682      .   S
    O79    C43       1.26744      .   S
    O74    Cd1       2.28990  1_545   S
    Cd8    O111      2.28305      .   S
    Cd8    O73       2.26151      .   S
    H17    C42       1.10504  1_545   S
    C42    C43       1.54806      .   S
    C42    O77       1.40937  1_565   S
    C43    O78       1.27301      .   S
    O81    C44       1.26726      .   S
    O72    Cd1       2.25659  1_455   S
    O72    C39       1.27439      .   S
    Cd1    O83       2.30437  1_565   S
    O80    C44       1.27680      .   S
    O80    Cd3       2.29795      .   S
    O73    C39       1.26740      .   S
    O78    Cd0       2.25356      .   S
    O77    Cd3       2.30299      .   S
    C44    C45       1.53408      .   S
    C39    C38       1.54643  1_455   S
    H12    O70       0.97508      .   S
    O70    C37       1.44090      .   S
    H21    C46       1.10504  1_455   S
    H14    C37       1.09807      .   S
    O83    C46       1.41090      .   S
    C38    C37       1.54749      .   S
    C38    O71       1.41090      .   S
    C38    H15       1.10492  1_655   S
    C45    C46       1.54740      .   S
    C45    H20       1.09805      .   S
    C45    O82       1.44180      .   S
    Cd3    O90       2.25456      .   S
    Cd0    O89       2.30524      .   S
    Cd0    O68       2.29587      .   S
    C37    C36       1.53321      .   S
    C46    C47       1.54634  1_655   S
    O71    Cd4       2.30823  1_565   S
    O82    H18       0.97515      .   S
    C47    O85       1.26740      .   S
    C47    O84       1.27437      .   S
    C36    O68       1.27682      .   S
    C36    O69       1.26735      .   S
    O89    C50       1.40962  1_565   S
    O85    Cd11      2.26418      .   S
    O90    C51       1.27356      .   S
    Cd4    O84       2.25622  1_655   S
    Cd4    O86       2.29395  1_545   S
    O69    Cd2       2.28064      .   S
    C51    C50       1.54767      .   S
    C51    O91       1.26758      .   S
    C50    H23       1.10509  1_545   S
    C50    C49       1.54836      .   S
    H28    C57       1.09799      .   S
    O99    Cd11      2.28612      .   S
    O99    C56       1.26593      .   S
    H25    O100      0.97533      .   S
    Cd11   O91       2.24947      .   S
    Cd11   O105      2.28354      .   S
    O86    C48       1.27876      .   S
    O88    C49       1.44029      .   S
    O88    H19       0.97534      .   S
    C56    C57       1.53332      .   S
    C56    O98       1.27887      .   S
    C57    O100      1.44081      .   S
    C57    C58       1.54859      .   S
    C49    C48       1.53302  1_545   S
    C49    H22       1.09809      .   S
    C48    O87       1.26565      .   S
    O103   Cd2       2.24726      .   S
    O103   C59       1.26742      .   S
    O98    Cd7       2.29085      .   S
    Cd2    O87       2.28329      .   S
    Cd2    O97       2.26195      .   S
    H29    C58       1.10485      .   S
    C58    C59       1.54794      .   S
    C58    O101      1.40939      .   S
    C59    O102      1.27301      .   S
    O105   C60       1.26720      .   S
    O96    Cd7       2.25649  1_655   S
    O96    C55       1.27456      .   S
    Cd7    O107      2.30260      .   S
    O104   C60       1.27680      .   S
    O104   Cd9       2.29774      .   S
    O97    C55       1.26742      .   S
    O102   Cd6       2.25393      .   S
    O101   Cd9       2.30318      .   S
    C60    C61       1.53417      .   S
    C55    C54       1.54669  1_655   S
    H24    O94       0.97507      .   S
    O70    Cd0       2.53086      .   S
    O71    Cd0       2.41945      .   S
    O71    Cd1       2.33015      .   S
    O76    Cd1       2.53115      .   S
    O77    Cd0       2.33073  1_545   S
    O77    Cd1       2.41348  1_545   S
    O82    Cd3       2.52947      .   S
    O83    Cd3       2.42081      .   S
    O83    Cd4       2.33294      .   S
    O88    Cd4       2.53630      .   S
    O89    Cd3       2.33198  1_565   S
    O89    Cd4       2.40900  1_565   S
    O94    Cd6       2.53066      .   S
    O95    Cd6       2.41912  1_554   S
    O95    Cd10      2.36842      .   S
    O100   Cd7       2.53064      .   S
    O101   Cd6       2.32916      .   S
    O101   Cd7       2.41393      .   S
    O106   Cd9       2.52953  1_554   S
    O107   Cd9       2.41982      .   S
    O107   Cd10      2.33407  1_556   S
    O112   Cd10      2.53637      .   S
    O113   Cd9       2.33131  1_554   S
    O113   Cd10      2.40866      .   S
