# CIF file generated by openbabel 2.4.90, see http://openbabel.sf.net
data_I
_chemical_name_common 'Ca2FeH16C12(N5O)2'
_cell_length_a 8.8355
_cell_length_b 8.8355
_cell_length_c 13.703
_cell_angle_alpha 95.653
_cell_angle_beta 95.661
_cell_angle_gamma 92.63
_space_group_name_H-M_alt 'P 1'
_space_group_name_Hall 'P 1'
loop_
    _symmetry_equiv_pos_as_xyz
    x,y,z
loop_
    _atom_site_label
    _atom_site_type_symbol
    _atom_site_fract_x
    _atom_site_fract_y
    _atom_site_fract_z
    _atom_site_occupancy
    Ca0     Ca   0.47559   0.15150   0.39638   1.000
    Ca1     Ca   0.84849   0.52437   0.10364   1.000
    Ca2     Ca   0.52433   0.84846   0.60363   1.000
    Ca3     Ca   0.15144   0.47558   0.89637   1.000
    Fe4     Fe   0.99997   0.49998   0.50001   1.000
    Fe5     Fe   0.49995   0.99996   0.00000   1.000
    H6      H    0.58820   0.54486   0.42385   1.000
    H7      H    0.38376   0.53955   0.41775   1.000
    H8      H    0.23337   0.38945   0.28478   1.000
    H9      H    0.32550   0.28254   0.19168   1.000
    H10     H    0.33742   0.76065   0.20678   1.000
    H11     H    0.59882   0.28990   0.19995   1.000
    H12     H    0.31567   0.10423   0.55807   1.000
    H13     H    0.47319   0.18362   0.61407   1.000
    H14     H    0.45515   0.41179   0.07614   1.000
    H15     H    0.46047   0.61623   0.08223   1.000
    H16     H    0.61055   0.76662   0.21518   1.000
    H17     H    0.71748   0.67451   0.30831   1.000
    H18     H    0.23934   0.66259   0.29315   1.000
    H19     H    0.71011   0.40119   0.30007   1.000
    H20     H    0.89579   0.68429   0.94188   1.000
    H21     H    0.81632   0.52675   0.88596   1.000
    H22     H    0.41172   0.45510   0.57616   1.000
    H23     H    0.61616   0.46042   0.58227   1.000
    H24     H    0.76654   0.61052   0.71523   1.000
    H25     H    0.67442   0.71743   0.80833   1.000
    H26     H    0.66251   0.23932   0.79323   1.000
    H27     H    0.40109   0.71006   0.80006   1.000
    H28     H    0.68427   0.89575   0.44194   1.000
    H29     H    0.52675   0.81636   0.38594   1.000
    H30     H    0.54477   0.58817   0.92387   1.000
    H31     H    0.53947   0.38373   0.91778   1.000
    H32     H    0.38938   0.23334   0.78483   1.000
    H33     H    0.28246   0.32544   0.69170   1.000
    H34     H    0.76059   0.33738   0.70686   1.000
    H35     H    0.28982   0.59877   0.69994   1.000
    H36     H    0.10415   0.31569   0.05813   1.000
    H37     H    0.18362   0.47323   0.11405   1.000
    C38     C    0.83306   0.35387   0.47746   1.000
    C39     C    0.97499   0.53089   0.36414   1.000
    C40     C    0.14122   0.35158   0.46909   1.000
    C41     C    0.48180   0.53726   0.37469   1.000
    C42     C    0.33168   0.38794   0.24179   1.000
    C43     C    0.64608   0.16688   0.02257   1.000
    C44     C    0.46907   0.02497   0.13587   1.000
    C45     C    0.64838   0.85871   0.03091   1.000
    C46     C    0.46275   0.51819   0.12529   1.000
    C47     C    0.61207   0.66833   0.25819   1.000
    C48     C    0.16685   0.64608   0.52255   1.000
    C49     C    0.02492   0.46905   0.63587   1.000
    C50     C    0.85869   0.64837   0.53092   1.000
    C51     C    0.51812   0.46271   0.62532   1.000
    C52     C    0.66823   0.61203   0.75822   1.000
    C53     C    0.35383   0.83307   0.97745   1.000
    C54     C    0.53083   0.97498   0.86414   1.000
    C55     C    0.35153   0.14124   0.96911   1.000
    C56     C    0.53717   0.48177   0.87472   1.000
    C57     C    0.38786   0.33164   0.74183   1.000
    C58     C    0.33752   0.66248   0.24997   1.000
    C59     C    0.60514   0.39487   0.25001   1.000
    C60     C    0.66241   0.33749   0.75004   1.000
    C61     C    0.39479   0.60509   0.75001   1.000
    N62     N    0.72202   0.27086   0.46266   1.000
    N63     N    0.95745   0.54600   0.27870   1.000
    N64     N    0.23597   0.26697   0.44740   1.000
    N65     N    0.47339   0.39357   0.30905   1.000
    N66     N    0.48024   0.67127   0.31731   1.000
    N67     N    0.72914   0.27790   0.03739   1.000
    N68     N    0.45399   0.04255   0.22132   1.000
    N69     N    0.73297   0.76392   0.05259   1.000
    N70     N    0.60643   0.52661   0.19096   1.000
    N71     N    0.32874   0.51976   0.18265   1.000
    N72     N    0.27789   0.72909   0.53735   1.000
    N73     N    0.04247   0.45394   0.72131   1.000
    N74     N    0.76394   0.73298   0.55261   1.000
    N75     N    0.52653   0.60640   0.69096   1.000
    N76     N    0.51969   0.32869   0.68270   1.000
    N77     N    0.27077   0.72205   0.96262   1.000
    N78     N    0.54591   0.95740   0.77869   1.000
    N79     N    0.26694   0.23603   0.94742   1.000
    N80     N    0.39349   0.47335   0.80906   1.000
    N81     N    0.67119   0.48021   0.81736   1.000
    O82     O    0.42503   0.08810   0.56639   1.000
    O83     O    0.91188   0.57492   0.93361   1.000
    O84     O    0.57491   0.91188   0.43363   1.000
    O85     O    0.08806   0.42506   0.06640   1.000
loop_
    _geom_bond_atom_site_label_1
    _geom_bond_atom_site_label_2
    _geom_bond_distance
    _geom_bond_site_symmetry_2
    _ccdc_geom_bond_type
    Fe5    C43       1.89591  1_565   S
    Fe5    C45       1.89782      .   S
    Fe5    C44       1.90119  1_565   S
    Fe5    C54       1.90104  1_554   S
    Fe5    C55       1.89785  1_564   S
    Fe5    C53       1.89569  1_554   S
    C43    N67       1.18623      .   S
    C45    N69       1.18779      .   S
    N67    Ca1       2.42681      .   S
    H36    O85       0.98033      .   S
    O85    H37       1.06012      .   S
    H14    C46       1.09656      .   S
    H15    C46       1.09495      .   S
    C46    N71       1.48428      .   S
    C46    N70       1.47634      .   S
    C44    N68       1.18726      .   S
    N71    C42       1.48280      .   S
    N71    C58       1.48151      .   S
    N70    C59       1.48186      .   S
    N70    C47       1.47548      .   S
    H9     C42       1.09721      .   S
    H11    C59       1.09369      .   S
    H10    C58       1.09716      .   S
    H16    C47       1.09637      .   S
    C42    H8        1.09639      .   S
    C42    N65       1.47550      .   S
    C58    H18       1.09717      .   S
    C58    N66       1.48151      .   S
    C59    H19       1.09367      .   S
    C59    N65       1.48190      .   S
    C47    H17       1.09722      .   S
    C47    N66       1.48279      .   S
    N63    C39       1.18726      .   S
    N65    C41       1.47634      .   S
    N66    C41       1.48433      .   S
    C39    Fe4       1.90104      .   S
    C41    H7        1.09493      .   S
    C41    H6        1.09658      .   S
    H29    O84       1.06012      .   S
    Ca0    N62       2.42656      .   S
    O84    H28       0.98035      .   S
    N64    C40       1.18778      .   S
    N62    C38       1.18622      .   S
    C40    Fe4       1.89772  1_455   S
    C38    Fe4       1.89566      .   S
    Fe4    C48       1.89549  1_655   S
    Fe4    C50       1.89785      .   S
    Fe4    C49       1.90104  1_655   S
    C48    N72       1.18621      .   S
    C50    N74       1.18778      .   S
    N72    Ca2       2.42662      .   S
    H12    O82       0.98036      .   S
    O82    H13       1.06014      .   S
    H22    C51       1.09658      .   S
    H23    C51       1.09495      .   S
    C51    N76       1.48431      .   S
    C51    N75       1.47634      .   S
    C49    N73       1.18725      .   S
    N76    C57       1.48280      .   S
    N76    C60       1.48151      .   S
    N75    C61       1.48189      .   S
    N75    C52       1.47548      .   S
    H33    C57       1.09720      .   S
    H35    C61       1.09368      .   S
    H34    C60       1.09716      .   S
    H24    C52       1.09638      .   S
    C57    H32       1.09639      .   S
    C57    N80       1.47546      .   S
    C61    H27       1.09368      .   S
    C61    N80       1.48186      .   S
    C60    H26       1.09717      .   S
    C60    N81       1.48151      .   S
    C52    H25       1.09721      .   S
    C52    N81       1.48280      .   S
    N78    C54       1.18726      .   S
    N80    C56       1.47633      .   S
    N81    C56       1.48430      .   S
    C56    H31       1.09496      .   S
    C56    H30       1.09656      .   S
    H21    O83       1.06010      .   S
    Ca3    N77       2.42676      .   S
    O83    H20       0.98033      .   S
    N79    C55       1.18779      .   S
    N77    C53       1.18623      .   S
    O82    Ca0       2.52584      .   S
    O82    Ca2       2.40999  1_545   S
    O83    Ca1       2.52609  1_556   S
    O83    Ca3       2.40960  1_655   S
    O84    Ca0       2.40997  1_565   S
    O84    Ca2       2.52593      .   S
    O85    Ca1       2.40963  1_455   S
    O85    Ca3       2.52602  1_554   S
