# CIF file generated by openbabel 2.4.90, see http://openbabel.sf.net
data_I
_chemical_name_common ''
_cell_length_a 8.746
_cell_length_b 12.063
_cell_length_c 24.0786
_cell_angle_alpha 85.582
_cell_angle_beta 79.8119
_cell_angle_gamma 89.886
_space_group_name_H-M_alt 'P 1'
_space_group_name_Hall 'P 1'
loop_
    _symmetry_equiv_pos_as_xyz
    x,y,z
loop_
    _atom_site_label
    _atom_site_type_symbol
    _atom_site_fract_x
    _atom_site_fract_y
    _atom_site_fract_z
    _atom_site_occupancy
    H0      H    0.74720   0.82328   0.79073   1.000
    H1      H    0.28241   0.75684   0.86830   1.000
    H2      H    0.49894   0.48720   0.85718   1.000
    H3      H    0.31279   0.53818   0.88216   1.000
    H4      H    0.71707   0.54063   0.92029   1.000
    H5      H    0.22560   0.50310   0.98207   1.000
    H6      H    0.50607   0.69087   0.21124   1.000
    H7      H    0.12078   0.73971   0.12941   1.000
    H8      H    0.28943   0.01639   0.13609   1.000
    H9      H    0.16297   0.94737   0.10087   1.000
    H10     H    0.43618   0.80340   0.03348   1.000
    H11     H    0.38402   0.15261   0.05814   1.000
    H12     H    0.24446   0.17976   0.20894   1.000
    H13     H    0.71003   0.24586   0.13217   1.000
    H14     H    0.49432   0.51565   0.14298   1.000
    H15     H    0.68024   0.46431   0.11799   1.000
    H16     H    0.27592   0.46243   0.07986   1.000
    H17     H    0.76739   0.49995   0.01809   1.000
    H18     H    0.48619   0.31130   0.78894   1.000
    H19     H    0.87198   0.26238   0.87051   1.000
    H20     H    0.70260   0.00000   0.86409   1.000
    H21     H    0.82967   0.05464   0.89907   1.000
    H22     H    0.55666   0.19887   0.96676   1.000
    H23     H    0.60879   0.84967   0.94210   1.000
    H24     H    0.37043   0.25082   0.58287   1.000
    H25     H    0.02060   0.00825   0.59337   1.000
    H26     H    0.33611   0.34853   0.48712   1.000
    H27     H    0.21460   0.28269   0.44799   1.000
    H28     H    0.94247   0.33339   0.56673   1.000
    H29     H    0.23366   0.51300   0.42573   1.000
    H30     H    0.59296   0.84653   0.65777   1.000
    H31     H    0.13025   0.79983   0.73443   1.000
    H32     H    0.44603   0.52746   0.74142   1.000
    H33     H    0.62319   0.75170   0.41725   1.000
    H34     H    0.97222   0.99484   0.40685   1.000
    H35     H    0.65777   0.65404   0.51289   1.000
    H36     H    0.77927   0.71986   0.55204   1.000
    H37     H    0.05143   0.66928   0.43317   1.000
    H38     H    0.76020   0.48966   0.57417   1.000
    H39     H    0.39934   0.15738   0.34239   1.000
    H40     H    0.86225   0.20137   0.26559   1.000
    H41     H    0.54833   0.47561   0.25817   1.000
    H42     H    0.94623   0.25461   0.41537   1.000
    H43     H    0.60294   0.49753   0.41161   1.000
    H44     H    0.82604   0.15271   0.51135   1.000
    H45     H    0.66844   0.21693   0.55261   1.000
    H46     H    0.50874   0.17042   0.43311   1.000
    H47     H    0.66178   0.98853   0.57385   1.000
    H48     H    0.23476   0.65784   0.34164   1.000
    H49     H    0.84468   0.70786   0.26611   1.000
    H50     H    0.16735   0.97911   0.26019   1.000
    H51     H    0.04735   0.74958   0.58404   1.000
    H52     H    0.39053   0.50658   0.58787   1.000
    H53     H    0.16772   0.85148   0.48814   1.000
    H54     H    0.32543   0.78734   0.44690   1.000
    H55     H    0.48493   0.83379   0.56646   1.000
    H56     H    0.33187   0.01569   0.42572   1.000
    H57     H    0.75962   0.34577   0.65773   1.000
    H58     H    0.14895   0.29628   0.73372   1.000
    H59     H    0.82498   0.02545   0.74048   1.000
    C60     C    0.64241   0.78190   0.81384   1.000
    C61     C    0.40614   0.75049   0.85312   1.000
    C62     C    0.43612   0.54676   0.88488   1.000
    C63     C    0.46766   0.52495   0.94450   1.000
    C64     C    0.62014   0.52353   0.95523   1.000
    C65     C    0.34478   0.50262   0.98992   1.000
    C66     C    0.42409   0.72781   0.18648   1.000
    C67     C    0.22812   0.75020   0.14517   1.000
    C68     C    0.28406   0.95059   0.10747   1.000
    C69     C    0.39658   0.97488   0.05236   1.000
    C70     C    0.46152   0.89052   0.01916   1.000
    C71     C    0.43304   0.08570   0.03275   1.000
    C72     C    0.34958   0.22103   0.18603   1.000
    C73     C    0.58620   0.25228   0.14712   1.000
    C74     C    0.55688   0.45602   0.11526   1.000
    C75     C    0.52534   0.47804   0.05565   1.000
    C76     C    0.37286   0.47954   0.04492   1.000
    C77     C    0.64822   0.50044   0.01023   1.000
    C78     C    0.56827   0.27437   0.81364   1.000
    C79     C    0.76449   0.25194   0.85483   1.000
    C80     C    0.70839   0.05162   0.89267   1.000
    C81     C    0.59616   0.02741   0.94786   1.000
    C82     C    0.53130   0.11176   0.98108   1.000
    C83     C    0.55976   0.91658   0.96749   1.000
    C84     C    0.27151   0.20393   0.57523   1.000
    C85     C    0.09420   0.08093   0.57941   1.000
    C86     C    0.21683   0.31830   0.48866   1.000
    C87     C    0.10211   0.41217   0.49607   1.000
    C88     C    0.96763   0.40701   0.53742   1.000
    C89     C    0.13015   0.50755   0.45864   1.000
    C90     C    0.53888   0.68046   0.69558   1.000
    C91     C    0.50240   0.79011   0.68066   1.000
    C92     C    0.24543   0.76437   0.72414   1.000
    C93     C    0.27173   0.65420   0.74247   1.000
    C94     C    0.42107   0.61286   0.72798   1.000
    C95     C    0.72198   0.79874   0.42488   1.000
    C96     C    0.89890   0.92200   0.42076   1.000
    C97     C    0.77701   0.68432   0.51136   1.000
    C98     C    0.89182   0.59052   0.50387   1.000
    C99     C    0.02628   0.59568   0.46251   1.000
    C100    C    0.86377   0.49512   0.54129   1.000
    C101    C    0.45444   0.32311   0.30428   1.000
    C102    C    0.49021   0.21341   0.31938   1.000
    C103    C    0.74746   0.23743   0.27590   1.000
    C104    C    0.72190   0.34756   0.25735   1.000
    C105    C    0.57266   0.39017   0.27175   1.000
    C106    C    0.83961   0.30101   0.42480   1.000
    C107    C    0.66469   0.42422   0.42395   1.000
    C108    C    0.70757   0.18326   0.51123   1.000
    C109    C    0.59907   0.09042   0.50372   1.000
    C110    C    0.50466   0.09673   0.46244   1.000
    C111    C    0.58999   0.99476   0.54103   1.000
    C112    C    0.21688   0.82474   0.30480   1.000
    C113    C    0.16610   0.71511   0.31923   1.000
    C114    C    0.95054   0.74218   0.27625   1.000
    C115    C    0.99439   0.85248   0.25845   1.000
    C116    C    0.12999   0.89350   0.27307   1.000
    C117    C    0.15395   0.70314   0.57465   1.000
    C118    C    0.32884   0.57991   0.57553   1.000
    C119    C    0.28618   0.82096   0.48829   1.000
    C120    C    0.39460   0.91380   0.49585   1.000
    C121    C    0.48901   0.90749   0.53712   1.000
    C122    C    0.40368   0.00946   0.45853   1.000
    C123    C    0.77655   0.17930   0.69519   1.000
    C124    C    0.82792   0.28870   0.68039   1.000
    C125    C    0.04309   0.26189   0.72362   1.000
    C126    C    0.99861   0.15185   0.74182   1.000
    C127    C    0.86291   0.11083   0.72726   1.000
    N128    N    0.64030   0.67570   0.83359   1.000
    N129    N    0.50028   0.83178   0.82512   1.000
    N130    N    0.48840   0.65706   0.85854   1.000
    N131    N    0.43855   0.83232   0.16411   1.000
    N132    N    0.29599   0.67338   0.17566   1.000
    N133    N    0.31215   0.84527   0.13793   1.000
    N134    N    0.35207   0.32723   0.16625   1.000
    N135    N    0.49172   0.17105   0.17499   1.000
    N136    N    0.50418   0.34578   0.14154   1.000
    N137    N    0.55374   0.16992   0.83611   1.000
    N138    N    0.69657   0.32875   0.82434   1.000
    N139    N    0.68029   0.15695   0.86222   1.000
    N140    N    0.21318   0.11088   0.60537   1.000
    N141    N    0.07611   0.14953   0.53518   1.000
    N142    N    0.19045   0.22808   0.53326   1.000
    N143    N    0.35894   0.83237   0.69445   1.000
    N144    N    0.78000   0.89192   0.39480   1.000
    N145    N    0.91726   0.85333   0.46493   1.000
    N146    N    0.80317   0.77462   0.46681   1.000
    N147    N    0.63333   0.17062   0.30560   1.000
    N148    N    0.80740   0.39514   0.39611   1.000
    N149    N    0.60736   0.35402   0.46797   1.000
    N150    N    0.72091   0.27539   0.46774   1.000
    N151    N    0.03566   0.67381   0.30544   1.000
    N152    N    0.18608   0.60898   0.60333   1.000
    N153    N    0.38627   0.65016   0.53153   1.000
    N154    N    0.27275   0.72880   0.53175   1.000
    N155    N    0.95836   0.33005   0.69417   1.000
loop_
    _geom_bond_atom_site_label_1
    _geom_bond_atom_site_label_2
    _geom_bond_distance
    _geom_bond_site_symmetry_2
    _ccdc_geom_bond_type
    C77    H17       1.09164      .   S
    C77    C75       1.40134      .   S
    C77    C64       1.39633  1_554   S
    C70    H10       1.09108      .   S
    C70    C69       1.39985      .   S
    C70    C83       1.39559  1_554   S
    C71    C69       1.40109  1_545   S
    C71    H11       1.09122      .   S
    C71    C82       1.39568  1_554   S
    C76    C75       1.40238      .   S
    C76    H16       1.09129      .   S
    C76    C65       1.39629  1_554   S
    C69    C68       1.51481      .   S
    C75    C74       1.51249      .   S
    H9     C68       1.09957      .   S
    C68    H8        1.09667  1_565   S
    C68    N133      1.45984      .   S
    C74    H15       1.09768      .   S
    C74    N136      1.46663      .   S
    C74    H14       1.09795      .   S
    H7     C67       1.08416      .   S
    H13    C73       1.08373      .   S
    N133   C67       1.34644      .   S
    N133   N131      1.36921      .   S
    N136   C73       1.34616      .   S
    N136   N134      1.36918      .   S
    C67    N132      1.34057      .   S
    C73    N135      1.34130      .   S
    N131   C66       1.32948      .   S
    N134   C72       1.33078      .   S
    N135   C72       1.37267      .   S
    N132   C66       1.37369      .   S
    C72    H12       1.08515      .   S
    C66    H6        1.08482      .   S
    C104   C105      1.39737      .   S
    C104   C103      1.39894      .   S
    H41    C105      1.08926      .   S
    C115   C116      1.39719  1_655   S
    C115   C114      1.39904      .   S
    H50    C116      1.08882      .   S
    H40    C103      1.08876      .   S
    H49    C114      1.08864      .   S
    C105   C101      1.39860      .   S
    C116   C112      1.39798      .   S
    C103   N147      1.34875      .   S
    C114   N151      1.34966  1_655   S
    C101   C102      1.39489      .   S
    C112   C113      1.39421      .   S
    N151   C113      1.34984      .   S
    N147   C102      1.34915      .   S
    C113   H48       1.08827      .   S
    C102   H39       1.08815      .   S
    N144   C96       1.36754      .   S
    N144   C95       1.33877      .   S
    N148   C107      1.36710      .   S
    N148   C106      1.33886      .   S
    H34    C96       1.08453      .   S
    H43    C107      1.08457      .   S
    H42    C106      1.08491      .   S
    H33    C95       1.08459      .   S
    C96    N145      1.32935      .   S
    C107   N149      1.32957      .   S
    C106   N150      1.34714      .   S
    C95    N146      1.34744      .   S
    H56    C122      1.09105      .   S
    H29    C89       1.09095      .   S
    H46    C110      1.08852      .   S
    H37    C99       1.08849      .   S
    H54    C119      1.10273      .   S
    H27    C86       1.10247      .   S
    C122   C110      1.39483      .   S
    C122   C120      1.40013  1_545   S
    C89    C99       1.39484      .   S
    C89    C87       1.39984      .   S
    C110   C109      1.39780      .   S
    C99    C98       1.39828  1_455   S
    N145   N146      1.37135      .   S
    N146   C97       1.45734      .   S
    N150   N149      1.37153      .   S
    N150   C108      1.45711      .   S
    H26    C86       1.09922      .   S
    H53    C119      1.09937      .   S
    C119   C120      1.51107      .   S
    C119   N154      1.45696      .   S
    C86    C87       1.51133      .   S
    C86    N142      1.45754      .   S
    C120   C121      1.39776      .   S
    C87    C88       1.39820  1_455   S
    C109   C108      1.51117      .   S
    C109   C111      1.40015  1_545   S
    C98    C97       1.51124      .   S
    C98    C100      1.39975      .   S
    C108   H44       1.09943      .   S
    C108   H45       1.10273      .   S
    C97    H35       1.09916      .   S
    C97    H36       1.10250      .   S
    N153   N154      1.37149      .   S
    N153   C118      1.32957      .   S
    N154   C117      1.34712      .   S
    N142   N141      1.37146      .   S
    N142   C84       1.34754      .   S
    N141   C85       1.32943      .   S
    C121   C111      1.39485      .   S
    C121   H55       1.08856      .   S
    C88    C100      1.39473      .   S
    C88    H28       1.08840      .   S
    C111   H47       1.09103      .   S
    C100   H38       1.09099      .   S
    C117   H51       1.08492      .   S
    C117   N152      1.33885      .   S
    C84    H24       1.08466      .   S
    C84    N140      1.33888      .   S
    C118   H52       1.08456      .   S
    C118   N152      1.36706      .   S
    C85    H25       1.08454      .   S
    C85    N140      1.36758      .   S
    H57    C124      1.08825      .   S
    H30    C91       1.08824      .   S
    C124   N155      1.34980      .   S
    C124   C123      1.39417      .   S
    C91    N143      1.34934      .   S
    C91    C90       1.39496      .   S
    N155   C125      1.34974  1_655   S
    N143   C92       1.35327      .   S
    C123   C127      1.39807      .   S
    C90    C94       1.39867      .   S
    C125   H58       1.08866      .   S
    C125   C126      1.39918  1_455   S
    C92    H31       1.08879      .   S
    C92    C93       1.39935      .   S
    C127   H59       1.08883      .   S
    C127   C126      1.39742      .   S
    C94    H32       1.08926      .   S
    C94    C93       1.39262      .   S
    H18    C78       1.08484      .   S
    H0     C60       1.08504      .   S
    C78    N138      1.37365      .   S
    C78    N137      1.32948      .   S
    C60    N129      1.37256      .   S
    C60    N128      1.33069      .   S
    N138   C79       1.34080      .   S
    N129   C61       1.34123      .   S
    N128   N130      1.36920      .   S
    N137   N139      1.36932      .   S
    C61    N130      1.34618      .   S
    C61    H1        1.08378      .   S
    C79    N139      1.34636      .   S
    C79    H19       1.08415      .   S
    H2     C62       1.09792      .   S
    N130   C62       1.46668      .   S
    N139   C80       1.45994      .   S
    H20    C80       0.97078      .   S
    H3     C62       1.09763      .   S
    C62    C63       1.51252      .   S
    C80    H21       1.09951      .   S
    C80    C81       1.51474      .   S
    H4     C64       1.09129      .   S
    H23    C83       1.09126      .   S
    C63    C64       1.40238      .   S
    C63    C65       1.40132      .   S
    C81    C83       1.40116  1_545   S
    C81    C82       1.39980      .   S
    H22    C82       1.09108      .   S
    H5     C65       1.09164      .   S
