# CIF file generated by openbabel 2.4.90, see http://openbabel.sf.net
data_I
_chemical_name_common ''
_cell_length_a 8.746
_cell_length_b 12.063
_cell_length_c 24.0786
_cell_angle_alpha 85.582
_cell_angle_beta 79.8119
_cell_angle_gamma 89.886
_space_group_name_H-M_alt 'P 1'
_space_group_name_Hall 'P 1'
loop_
    _symmetry_equiv_pos_as_xyz
    x,y,z
loop_
    _atom_site_label
    _atom_site_type_symbol
    _atom_site_fract_x
    _atom_site_fract_y
    _atom_site_fract_z
    _atom_site_occupancy
    Ag0     Ag   0.58095   0.00721   0.20389   1.000
    Ag1     Ag   0.18415   0.50917   0.20715   1.000
    Ag2     Ag   0.41171   0.00000   0.79638   1.000
    Ag3     Ag   0.33663   0.01437   0.66478   1.000
    Ag4     Ag   0.65618   0.98935   0.33553   1.000
    Ag5     Ag   0.98430   0.49263   0.33523   1.000
    Ag6     Ag   0.00942   0.51136   0.66422   1.000
    Ag7     Ag   0.80889   0.49266   0.79256   1.000
    C8      C    0.70265   0.63955   0.67668   1.000
    C9      C    0.14003   0.58262   0.77642   1.000
    C10     C    0.29096   0.36457   0.32312   1.000
    C11     C    0.85395   0.41853   0.22332   1.000
    C12     C    0.36290   0.86476   0.32326   1.000
    C13     C    0.89543   0.92642   0.22540   1.000
    C14     C    0.63046   0.13939   0.67669   1.000
    C15     C    0.09700   0.07822   0.77527   1.000
    O16     O    0.73077   0.54070   0.69593   1.000
    O17     O    0.79668   0.70340   0.64350   1.000
    O18     O    0.17056   0.50455   0.80989   1.000
    O19     O    0.00479   0.61108   0.76600   1.000
    O20     O    0.26326   0.46332   0.30360   1.000
    O21     O    0.19666   0.30120   0.35647   1.000
    O22     O    0.82368   0.49626   0.18960   1.000
    O23     O    0.98900   0.39008   0.23392   1.000
    O24     O    0.41033   0.96303   0.30358   1.000
    O25     O    0.42493   0.80062   0.35639   1.000
    O26     O    0.95437   0.01389   0.19906   1.000
    O27     O    0.75506   0.88962   0.22901   1.000
    O28     O    0.58275   0.04120   0.69642   1.000
    O29     O    0.56876   0.20360   0.64350   1.000
    O30     O    0.03677   0.00000   0.80282   1.000
    O31     O    0.23842   0.11303   0.77062   1.000
loop_
    _geom_bond_atom_site_label_1
    _geom_bond_atom_site_label_2
    _geom_bond_distance
    _geom_bond_site_symmetry_2
    _ccdc_geom_bond_type
    O22    C11       1.25154      .   S
    O26    C13       1.25095  1_545   S
    Ag0    O27       2.20954  1_545   S
    Ag0    Ag4       3.34043  1_545   S
    Ag1    O23       2.20684  1_455   S
    Ag1    Ag5       3.25675  1_455   S
    C11    O23       1.29214      .   S
    C13    O27       1.29234      .   S
    O24    C12       1.28364      .   S
    O24    Ag4       2.43754      .   S
    O20    C10       1.28505      .   S
    O20    Ag5       2.45728  1_455   S
    C10    O21       1.25820      .   S
    C12    O25       1.25908      .   S
    O17    C8        1.25824      .   S
    O29    C14       1.25906      .   S
    Ag6    O16       2.45506  1_455   S
    Ag6    Ag7       3.26391  1_455   S
    Ag3    O28       2.43717      .   S
    Ag3    Ag2       3.33955      .   S
    C8     O16       1.28502      .   S
    C14    O28       1.28364      .   S
    O19    C9        1.29227      .   S
    O19    Ag7       2.20602  1_455   S
    O31    C15       1.29015      .   S
    O31    Ag2       2.17591      .   S
    C15    O30       1.17898      .   S
    C9     O18       1.25145      .   S
    O20    Ag1       2.55892      .   S
