# CIF file generated by openbabel 2.4.90, see http://openbabel.sf.net
data_I
_chemical_name_common ''
_cell_length_a 8.746
_cell_length_b 12.063
_cell_length_c 24.0786
_cell_angle_alpha 85.582
_cell_angle_beta 79.8119
_cell_angle_gamma 89.886
_space_group_name_H-M_alt 'P 1'
_space_group_name_Hall 'P 1'
loop_
    _symmetry_equiv_pos_as_xyz
    x,y,z
loop_
    _atom_site_label
    _atom_site_type_symbol
    _atom_site_fract_x
    _atom_site_fract_y
    _atom_site_fract_z
    _atom_site_occupancy
    N0      N    0.49682   0.00209   0.49975   1.000
    N1      N    0.91122   0.22112   0.71049   1.000
    N2      N    0.49628   0.00157   0.00007   1.000
    N3      N    0.99681   0.50136   0.50002   1.000
    N4      N    0.49632   0.50145   0.00005   1.000
    N5      N    0.08226   0.78296   0.28946   1.000
    N6      N    0.38974   0.72314   0.71099   1.000
    N7      N    0.60332   0.27963   0.28893   1.000
    Zr8     Zr   0.92047   0.57324   0.72815   1.000
    O9      O    0.77249   0.38969   0.81621   1.000
    O10     O    0.71286   0.63241   0.71336   1.000
    O11     O    0.10914   0.62201   0.73168   1.000
    O12     O    0.10888   0.67719   0.64746   1.000
    O13     O    0.93401   0.44708   0.71150   1.000
    Zr14    Zr   0.07325   0.42947   0.27155   1.000
    O15     O    0.28063   0.37060   0.28643   1.000
    O16     O    0.88444   0.38040   0.26809   1.000
    O17     O    0.05968   0.55628   0.28822   1.000
    O18     O    0.88479   0.32623   0.35213   1.000
    O19     O    0.22071   0.61295   0.18364   1.000
    Zr20    Zr   0.36281   0.07373   0.72831   1.000
    O21     O    0.17116   0.12090   0.73141   1.000
    O22     O    0.24934   0.17786   0.64793   1.000
    O23     O    0.36579   0.94849   0.71181   1.000
    O24     O    0.41949   0.89120   0.81686   1.000
    O25     O    0.58509   0.13198   0.71326   1.000
    Zr26    Zr   0.63002   0.93186   0.27202   1.000
    O27     O    0.40805   0.87286   0.28688   1.000
    O28     O    0.82180   0.88403   0.26886   1.000
    O29     O    0.74374   0.82643   0.35231   1.000
    O30     O    0.62703   0.05583   0.28838   1.000
    O31     O    0.57317   0.11358   0.18338   1.000
loop_
    _geom_bond_atom_site_label_1
    _geom_bond_atom_site_label_2
    _geom_bond_distance
    _geom_bond_site_symmetry_2
    _ccdc_geom_bond_type
    Zr8    O9        3.06439      .   S
    N2     O9        6.35793  1_554   S
    Zr8    O10       2.02922      .   S
    N6     O10       3.03686      .   S
    Zr8    O11       1.77125  1_655   S
    N6     O11       2.69166      .   S
    Zr8    O12       2.56181  1_655   S
    N0     O12       5.75837  1_545   S
    Zr8    O13       1.60236      .   S
    N1     O13       2.73563      .   S
    Zr14   O15       2.02683      .   S
    N7     O15       3.03495      .   S
    Zr14   O16       1.77322  1_455   S
    N7     O16       2.69365      .   S
    Zr14   O17       1.61008      .   S
    N5     O17       2.74480      .   S
    Zr14   O18       2.55673  1_455   S
    N0     O18       5.75167      .   S
    Zr14   O19       3.06044      .   S
    N2     O19       6.35675  1_545   S
    Zr20   O21       1.75996      .   S
    N1     O21       2.68040  1_655   S
    Zr20   O22       2.57079      .   S
    N3     O22       5.77902  1_655   S
    Zr20   O23       1.59047  1_545   S
    N6     O23       2.72741      .   S
    Zr20   O24       3.04724  1_545   S
    N4     O24       6.31307  1_554   S
    Zr20   O25       2.03010      .   S
    N1     O25       3.03817      .   S
    Zr26   O27       2.03077      .   S
    N5     O27       3.03938      .   S
    Zr26   O28       1.76349      .   S
    N5     O28       2.68656  1_455   S
    Zr26   O29       2.57692      .   S
    N3     O29       5.79038      .   S
    Zr26   O30       1.57462  1_565   S
    N7     O30       2.70804      .   S
    Zr26   O31       3.04258  1_565   S
    N4     O31       6.29962      .   S
