# CIF file generated by openbabel 2.4.90, see http://openbabel.sf.net
data_I
_chemical_name_common ''
_cell_length_a 8.746
_cell_length_b 12.063
_cell_length_c 24.0786
_cell_angle_alpha 85.582
_cell_angle_beta 79.8119
_cell_angle_gamma 89.886
_space_group_name_H-M_alt 'P 1'
_space_group_name_Hall 'P 1'
loop_
    _symmetry_equiv_pos_as_xyz
    x,y,z
loop_
    _atom_site_label
    _atom_site_type_symbol
    _atom_site_fract_x
    _atom_site_fract_y
    _atom_site_fract_z
    _atom_site_occupancy
    C0      C    0.80889   0.49266   0.79256   1.000
    C1      C    0.58095   0.00721   0.20389   1.000
    C2      C    0.18415   0.50917   0.20715   1.000
    C3      C    0.41171   0.00000   0.79638   1.000
    C4      C    0.33663   0.01437   0.66478   1.000
    C5      C    0.65618   0.98935   0.33553   1.000
    C6      C    0.98430   0.49263   0.33523   1.000
    C7      C    0.00942   0.51136   0.66422   1.000
    C8      C    0.74720   0.82328   0.79073   1.000
    C9      C    0.28241   0.75684   0.86830   1.000
    C10     C    0.49894   0.48720   0.85718   1.000
    C11     C    0.31279   0.53818   0.88216   1.000
    C12     C    0.71707   0.54063   0.92029   1.000
    C13     C    0.22560   0.50310   0.98207   1.000
    C14     C    0.50607   0.69087   0.21124   1.000
    C15     C    0.12078   0.73971   0.12941   1.000
    C16     C    0.28943   0.01639   0.13609   1.000
    C17     C    0.16297   0.94737   0.10087   1.000
    C18     C    0.43618   0.80340   0.03348   1.000
    C19     C    0.38402   0.15261   0.05814   1.000
    C20     C    0.24446   0.17976   0.20894   1.000
    C21     C    0.71003   0.24586   0.13217   1.000
    C22     C    0.49432   0.51565   0.14298   1.000
    C23     C    0.68024   0.46431   0.11799   1.000
    C24     C    0.27592   0.46243   0.07986   1.000
    C25     C    0.76739   0.49995   0.01809   1.000
    C26     C    0.48619   0.31130   0.78894   1.000
    C27     C    0.87198   0.26238   0.87051   1.000
    C28     C    0.70260   0.00000   0.86409   1.000
    C29     C    0.82967   0.05464   0.89907   1.000
    C30     C    0.55666   0.19887   0.96676   1.000
    C31     C    0.60879   0.84967   0.94210   1.000
    C32     C    0.37043   0.25082   0.58287   1.000
    C33     C    0.02060   0.00825   0.59337   1.000
    C34     C    0.33611   0.34853   0.48712   1.000
    C35     C    0.21460   0.28269   0.44799   1.000
    C36     C    0.94247   0.33339   0.56673   1.000
    C37     C    0.23366   0.51300   0.42573   1.000
    C38     C    0.59296   0.84653   0.65777   1.000
    C39     C    0.13025   0.79983   0.73443   1.000
    C40     C    0.44603   0.52746   0.74142   1.000
    C41     C    0.62319   0.75170   0.41725   1.000
    C42     C    0.97222   0.99484   0.40685   1.000
    C43     C    0.65777   0.65404   0.51289   1.000
    C44     C    0.77927   0.71986   0.55204   1.000
    C45     C    0.05143   0.66928   0.43317   1.000
    C46     C    0.76020   0.48966   0.57417   1.000
    C47     C    0.39934   0.15738   0.34239   1.000
    C48     C    0.86225   0.20137   0.26559   1.000
    C49     C    0.54833   0.47561   0.25817   1.000
    C50     C    0.94623   0.25461   0.41537   1.000
    C51     C    0.60294   0.49753   0.41161   1.000
    C52     C    0.82604   0.15271   0.51135   1.000
    C53     C    0.66844   0.21693   0.55261   1.000
    C54     C    0.50874   0.17042   0.43311   1.000
    C55     C    0.66178   0.98853   0.57385   1.000
    C56     C    0.23476   0.65784   0.34164   1.000
    C57     C    0.84468   0.70786   0.26611   1.000
    C58     C    0.16735   0.97911   0.26019   1.000
    C59     C    0.04735   0.74958   0.58404   1.000
    C60     C    0.39053   0.50658   0.58787   1.000
    C61     C    0.16772   0.85148   0.48814   1.000
    C62     C    0.32543   0.78734   0.44690   1.000
    C63     C    0.48493   0.83379   0.56646   1.000
    C64     C    0.33187   0.01569   0.42572   1.000
    C65     C    0.75962   0.34577   0.65773   1.000
    C66     C    0.14895   0.29628   0.73372   1.000
    C67     C    0.82498   0.02545   0.74048   1.000
    C68     C    0.64241   0.78190   0.81384   1.000
    C69     C    0.40614   0.75049   0.85312   1.000
    C70     C    0.43612   0.54676   0.88488   1.000
    C71     C    0.46766   0.52495   0.94450   1.000
    C72     C    0.62014   0.52353   0.95523   1.000
    C73     C    0.34478   0.50262   0.98992   1.000
    C74     C    0.42409   0.72781   0.18648   1.000
    C75     C    0.22812   0.75020   0.14517   1.000
    C76     C    0.28406   0.95059   0.10747   1.000
    C77     C    0.39658   0.97488   0.05236   1.000
    C78     C    0.46152   0.89052   0.01916   1.000
    C79     C    0.43304   0.08570   0.03275   1.000
    C80     C    0.34958   0.22103   0.18603   1.000
    C81     C    0.58620   0.25228   0.14712   1.000
    C82     C    0.55688   0.45602   0.11526   1.000
    C83     C    0.52534   0.47804   0.05565   1.000
    C84     C    0.37286   0.47954   0.04492   1.000
    C85     C    0.64822   0.50044   0.01023   1.000
    C86     C    0.56827   0.27437   0.81364   1.000
    C87     C    0.76449   0.25194   0.85483   1.000
    C88     C    0.70839   0.05162   0.89267   1.000
    C89     C    0.59616   0.02741   0.94786   1.000
    C90     C    0.53130   0.11176   0.98108   1.000
    C91     C    0.55976   0.91658   0.96749   1.000
    C92     C    0.27151   0.20393   0.57523   1.000
    C93     C    0.09420   0.08093   0.57941   1.000
    C94     C    0.21683   0.31830   0.48866   1.000
    C95     C    0.10211   0.41217   0.49607   1.000
    C96     C    0.96763   0.40701   0.53742   1.000
    C97     C    0.13015   0.50755   0.45864   1.000
    C98     C    0.70265   0.63955   0.67668   1.000
    C99     C    0.53888   0.68046   0.69558   1.000
    C100    C    0.50240   0.79011   0.68066   1.000
    C101    C    0.24543   0.76437   0.72414   1.000
    C102    C    0.27173   0.65420   0.74247   1.000
    C103    C    0.42107   0.61286   0.72798   1.000
    C104    C    0.14003   0.58262   0.77642   1.000
    C105    C    0.72198   0.79874   0.42488   1.000
    C106    C    0.89890   0.92200   0.42076   1.000
    C107    C    0.77701   0.68432   0.51136   1.000
    C108    C    0.89182   0.59052   0.50387   1.000
    C109    C    0.02628   0.59568   0.46251   1.000
    C110    C    0.86377   0.49512   0.54129   1.000
    C111    C    0.29096   0.36457   0.32312   1.000
    C112    C    0.45444   0.32311   0.30428   1.000
    C113    C    0.49021   0.21341   0.31938   1.000
    C114    C    0.74746   0.23743   0.27590   1.000
    C115    C    0.72190   0.34756   0.25735   1.000
    C116    C    0.57266   0.39017   0.27175   1.000
    C117    C    0.85395   0.41853   0.22332   1.000
    C118    C    0.83961   0.30101   0.42480   1.000
    C119    C    0.66469   0.42422   0.42395   1.000
    C120    C    0.70757   0.18326   0.51123   1.000
    C121    C    0.59907   0.09042   0.50372   1.000
    C122    C    0.50466   0.09673   0.46244   1.000
    C123    C    0.58999   0.99476   0.54103   1.000
    C124    C    0.36290   0.86476   0.32326   1.000
    C125    C    0.21688   0.82474   0.30480   1.000
    C126    C    0.16610   0.71511   0.31923   1.000
    C127    C    0.95054   0.74218   0.27625   1.000
    C128    C    0.99439   0.85248   0.25845   1.000
    C129    C    0.12999   0.89350   0.27307   1.000
    C130    C    0.89543   0.92642   0.22540   1.000
    C131    C    0.15395   0.70314   0.57465   1.000
    C132    C    0.32884   0.57991   0.57553   1.000
    C133    C    0.28618   0.82096   0.48829   1.000
    C134    C    0.39460   0.91380   0.49585   1.000
    C135    C    0.48901   0.90749   0.53712   1.000
    C136    C    0.40368   0.00946   0.45853   1.000
    C137    C    0.63046   0.13939   0.67669   1.000
    C138    C    0.77655   0.17930   0.69519   1.000
    C139    C    0.82792   0.28870   0.68039   1.000
    C140    C    0.04309   0.26189   0.72362   1.000
    C141    C    0.99861   0.15185   0.74182   1.000
    C142    C    0.86291   0.11083   0.72726   1.000
    C143    C    0.09700   0.07822   0.77527   1.000
    C144    C    0.64030   0.67570   0.83359   1.000
    C145    C    0.50028   0.83178   0.82512   1.000
    C146    C    0.48840   0.65706   0.85854   1.000
    C147    C    0.43855   0.83232   0.16411   1.000
    C148    C    0.29599   0.67338   0.17566   1.000
    C149    C    0.31215   0.84527   0.13793   1.000
    C150    C    0.35207   0.32723   0.16625   1.000
    C151    C    0.49172   0.17105   0.17499   1.000
    C152    C    0.50418   0.34578   0.14154   1.000
    C153    C    0.55374   0.16992   0.83611   1.000
    C154    C    0.69657   0.32875   0.82434   1.000
    C155    C    0.68029   0.15695   0.86222   1.000
    C156    C    0.21318   0.11088   0.60537   1.000
    C157    C    0.07611   0.14953   0.53518   1.000
    C158    C    0.19045   0.22808   0.53326   1.000
    C159    C    0.35894   0.83237   0.69445   1.000
    C160    C    0.78000   0.89192   0.39480   1.000
    C161    C    0.91726   0.85333   0.46493   1.000
    C162    C    0.80317   0.77462   0.46681   1.000
    C163    C    0.63333   0.17062   0.30560   1.000
    C164    C    0.80740   0.39514   0.39611   1.000
    C165    C    0.60736   0.35402   0.46797   1.000
    C166    C    0.72091   0.27539   0.46774   1.000
    C167    C    0.03566   0.67381   0.30544   1.000
    C168    C    0.18608   0.60898   0.60333   1.000
    C169    C    0.38627   0.65016   0.53153   1.000
    C170    C    0.27275   0.72880   0.53175   1.000
    C171    C    0.95836   0.33005   0.69417   1.000
    C172    C    0.73077   0.54070   0.69593   1.000
    C173    C    0.79668   0.70340   0.64350   1.000
    C174    C    0.17056   0.50455   0.80989   1.000
    C175    C    0.00479   0.61108   0.76600   1.000
    C176    C    0.26326   0.46332   0.30360   1.000
    C177    C    0.19666   0.30120   0.35647   1.000
    C178    C    0.82368   0.49626   0.18960   1.000
    C179    C    0.98900   0.39008   0.23392   1.000
    C180    C    0.41033   0.96303   0.30358   1.000
    C181    C    0.42493   0.80062   0.35639   1.000
    C182    C    0.95437   0.01389   0.19906   1.000
    C183    C    0.75506   0.88962   0.22901   1.000
    C184    C    0.58275   0.04120   0.69642   1.000
    C185    C    0.56876   0.20360   0.64350   1.000
    C186    C    0.03677   0.00000   0.80282   1.000
    C187    C    0.23842   0.11303   0.77062   1.000
    O188    O    0.70780   0.50019   0.01416   1.000
    O189    O    0.58678   0.48924   0.03294   1.000
    O190    O    0.63418   0.51198   0.98273   1.000
    O191    O    0.44885   0.84696   0.02632   1.000
    O192    O    0.42905   0.93270   0.03576   1.000
    O193    O    0.51064   0.90355   0.99333   1.000
    O194    O    0.41481   0.03029   0.04255   1.000
    O195    O    0.40853   0.11915   0.04544   1.000
    O196    O    0.48217   0.09873   0.00691   1.000
    O197    O    0.44910   0.47879   0.05028   1.000
    O198    O    0.32439   0.47099   0.06239   1.000
    O199    O    0.35882   0.49108   0.01742   1.000
    O200    O    0.34032   0.96274   0.07992   1.000
    O201    O    0.54111   0.46703   0.08546   1.000
    O202    O    0.22352   0.94898   0.10417   1.000
    O203    O    0.28674   0.98349   0.12178   1.000
    O204    O    0.29811   0.89793   0.12270   1.000
    O205    O    0.61856   0.46016   0.11662   1.000
    O206    O    0.53053   0.40090   0.12840   1.000
    O207    O    0.52560   0.48583   0.12912   1.000
    O208    O    0.17445   0.74496   0.13729   1.000
    O209    O    0.64812   0.24907   0.13965   1.000
    O210    O    0.27013   0.79774   0.14155   1.000
    O211    O    0.37535   0.83880   0.15102   1.000
    O212    O    0.54519   0.29903   0.14433   1.000
    O213    O    0.42813   0.33650   0.15389   1.000
    O214    O    0.26205   0.71179   0.16042   1.000
    O215    O    0.53896   0.21167   0.16106   1.000
    O216    O    0.43132   0.78007   0.17530   1.000
    O217    O    0.35083   0.27413   0.17614   1.000
    O218    O    0.42065   0.19604   0.18051   1.000
    O219    O    0.53633   0.08913   0.18944   1.000
    O220    O    0.36004   0.70059   0.18107   1.000
    O221    O    0.24007   0.59127   0.19140   1.000
    O222    O    0.29702   0.20039   0.19749   1.000
    O223    O    0.46508   0.70934   0.19886   1.000
    O224    O    0.83882   0.45739   0.20646   1.000
    O225    O    0.92490   0.97015   0.21223   1.000
    O226    O    0.66801   0.94842   0.21645   1.000
    O227    O    0.61857   0.99828   0.26971   1.000
    O228    O    0.08658   0.44962   0.22053   1.000
    O229    O    0.08423   0.50090   0.27119   1.000
    O230    O    0.92148   0.40430   0.22862   1.000
    O231    O    0.78792   0.38304   0.24034   1.000
    O232    O    0.82525   0.90802   0.22721   1.000
    O233    O    0.94491   0.88945   0.24193   1.000
    O234    O    0.64728   0.36886   0.26455   1.000
    O235    O    0.73468   0.29249   0.26663   1.000
    O236    O    0.56050   0.43289   0.26496   1.000
    O237    O    0.06219   0.87299   0.26576   1.000
    O238    O    0.97247   0.79733   0.26735   1.000
    O239    O    0.14867   0.93630   0.26663   1.000
    O240    O    0.80485   0.21940   0.27074   1.000
    O241    O    0.89761   0.72502   0.27118   1.000
    O242    O    0.51355   0.35664   0.28802   1.000
    O243    O    0.17344   0.85912   0.28894   1.000
    O244    O    0.69040   0.20402   0.29075   1.000
    O245    O    0.99310   0.70800   0.29084   1.000
    O246    O    0.38662   0.91389   0.31342   1.000
    O247    O    0.53326   0.97619   0.31956   1.000
    O248    O    0.27711   0.41394   0.31336   1.000
    O249    O    0.12378   0.47797   0.31942   1.000
    O250    O    0.47233   0.26826   0.31183   1.000
    O251    O    0.37270   0.34384   0.31370   1.000
    O252    O    0.19149   0.76993   0.31202   1.000
    O253    O    0.28989   0.84475   0.31403   1.000
    O254    O    0.10088   0.69446   0.31233   1.000
    O255    O    0.00998   0.58322   0.32033   1.000
    O256    O    0.56177   0.19201   0.31249   1.000
    O257    O    0.64476   0.07998   0.32057   1.000
    O258    O    0.20043   0.68648   0.33044   1.000
    O259    O    0.44478   0.18540   0.33089   1.000
    O260    O    0.24381   0.33288   0.33979   1.000
    O261    O    0.39392   0.83269   0.33983   1.000
    O262    O    0.89585   0.44388   0.36567   1.000
    O263    O    0.71809   0.94064   0.36517   1.000
    O264    O    0.83945   0.90696   0.40778   1.000
    O265    O    0.75099   0.84533   0.40984   1.000
    O266    O    0.73605   0.40968   0.41003   1.000
    O267    O    0.82351   0.34807   0.41045   1.000
    O268    O    0.93556   0.95842   0.41381   1.000
    O269    O    0.63381   0.46087   0.41778   1.000
    O270    O    0.89292   0.27781   0.42009   1.000
    O271    O    0.67258   0.77522   0.42106   1.000
    O272    O    0.90808   0.88767   0.44285   1.000
    O273    O    0.63603   0.38912   0.44596   1.000
    O274    O    0.78026   0.28820   0.44627   1.000
    O275    O    0.76257   0.78668   0.44584   1.000
    O276    O    0.36777   0.01257   0.44213   1.000
    O277    O    0.18190   0.51028   0.44218   1.000
    O278    O    0.50670   0.13358   0.44778   1.000
    O279    O    0.03885   0.63248   0.44784   1.000
    O280    O    0.30581   0.80415   0.46759   1.000
    O281    O    0.21572   0.30050   0.46832   1.000
    O282    O    0.45417   0.05309   0.46049   1.000
    O283    O    0.39914   0.96163   0.47719   1.000
    O284    O    0.07821   0.55162   0.46057   1.000
    O285    O    0.11613   0.45986   0.47735   1.000
    O286    O    0.55187   0.09357   0.48308   1.000
    O287    O    0.95905   0.59310   0.48319   1.000
    O288    O    0.86021   0.81398   0.46587   1.000
    O289    O    0.79009   0.72947   0.48908   1.000
    O290    O    0.66414   0.31470   0.46786   1.000
    O291    O    0.71424   0.22932   0.48949   1.000
    O292    O    0.27647   0.33342   0.48789   1.000
    O293    O    0.22695   0.83622   0.48821   1.000
    O294    O    0.34039   0.86738   0.49207   1.000
    O295    O    0.27947   0.77488   0.51002   1.000
    O296    O    0.15947   0.36523   0.49236   1.000
    O297    O    0.20364   0.27319   0.51096   1.000
    O298    O    0.44181   0.91065   0.51649   1.000
    O299    O    0.03487   0.40959   0.51674   1.000
    O300    O    0.65332   0.13684   0.50748   1.000
    O301    O    0.59453   0.04259   0.52238   1.000
    O302    O    0.83441   0.63742   0.50761   1.000
    O303    O    0.87779   0.54282   0.52258   1.000
    O304    O    0.76680   0.16798   0.51129   1.000
    O305    O    0.68800   0.20009   0.53192   1.000
    O306    O    0.71739   0.66918   0.51213   1.000
    O307    O    0.77814   0.70209   0.53170   1.000
    O308    O    0.32951   0.68948   0.53164   1.000
    O309    O    0.35755   0.61504   0.55353   1.000
    O310    O    0.21335   0.71597   0.55320   1.000
    O311    O    0.13328   0.18881   0.53422   1.000
    O312    O    0.23098   0.21601   0.55425   1.000
    O313    O    0.08516   0.11523   0.55730   1.000
    O314    O    0.53950   0.95112   0.53908   1.000
    O315    O    0.48697   0.87064   0.55179   1.000
    O316    O    0.91570   0.45107   0.53935   1.000
    O317    O    0.95505   0.37020   0.55208   1.000
    O318    O    0.62588   0.99164   0.55744   1.000
    O319    O    0.81199   0.49239   0.55773   1.000
    O320    O    0.10065   0.72636   0.57935   1.000
    O321    O    0.17002   0.65606   0.58899   1.000
    O322    O    0.32097   0.22737   0.57905   1.000
    O323    O    0.24234   0.15740   0.59030   1.000
    O324    O    0.35968   0.54324   0.58170   1.000
    O325    O    0.25746   0.59445   0.58943   1.000
    O326    O    0.05740   0.04459   0.58639   1.000
    O327    O    0.15369   0.09590   0.59239   1.000
    O328    O    0.09775   0.56017   0.63378   1.000
    O329    O    0.27491   0.06262   0.63507   1.000
    O330    O    0.74967   0.67148   0.66009   1.000
    O331    O    0.59961   0.17149   0.66010   1.000
    O332    O    0.79377   0.31723   0.66906   1.000
    O333    O    0.54768   0.81832   0.66921   1.000
    O334    O    0.98389   0.42070   0.67920   1.000
    O335    O    0.87010   0.52603   0.68008   1.000
    O336    O    0.90915   0.50201   0.72839   1.000
    O337    O    0.34779   0.92337   0.67962   1.000
    O338    O    0.45969   0.02779   0.68060   1.000
    O339    O    0.37417   0.00718   0.73058   1.000
    O340    O    0.62077   0.66001   0.68613   1.000
    O341    O    0.71671   0.59013   0.68631   1.000
    O342    O    0.70350   0.15934   0.68594   1.000
    O343    O    0.60661   0.09030   0.68655   1.000
    O344    O    0.89314   0.30938   0.68728   1.000
    O345    O    0.80223   0.23400   0.68779   1.000
    O346    O    0.43067   0.81124   0.68756   1.000
    O347    O    0.52064   0.73529   0.68812   1.000
    O348    O    0.00073   0.29597   0.70889   1.000
    O349    O    0.30218   0.79837   0.70930   1.000
    O350    O    0.81973   0.14506   0.71122   1.000
    O351    O    0.47998   0.64666   0.71178   1.000
    O352    O    0.09602   0.27909   0.72867   1.000
    O353    O    0.02085   0.20687   0.73272   1.000
    O354    O    0.18784   0.78210   0.72929   1.000
    O355    O    0.25858   0.70929   0.73330   1.000
    O356    O    0.84395   0.06814   0.73387   1.000
    O357    O    0.93076   0.13134   0.73454   1.000
    O358    O    0.43355   0.57016   0.73470   1.000
    O359    O    0.34640   0.63353   0.73522   1.000
    O360    O    0.04780   0.11503   0.75855   1.000
    O361    O    0.20588   0.61841   0.75944   1.000
    O362    O    0.07241   0.59685   0.77121   1.000
    O363    O    0.90684   0.55187   0.77928   1.000
    O364    O    0.16771   0.09563   0.77294   1.000
    O365    O    0.32506   0.05651   0.78350   1.000
    O366    O    0.06689   0.03911   0.78905   1.000
    O367    O    0.15529   0.54359   0.79316   1.000
    O368    O    0.52723   0.29284   0.80129   1.000
    O369    O    0.69481   0.80259   0.80228   1.000
    O370    O    0.75273   0.41071   0.80845   1.000
    O371    O    0.45599   0.91589   0.81075   1.000
    O372    O    0.63242   0.30156   0.81899   1.000
    O373    O    0.56101   0.22215   0.82488   1.000
    O374    O    0.57134   0.80684   0.81948   1.000
    O375    O    0.64136   0.72880   0.82371   1.000
    O376    O    0.73053   0.29035   0.83959   1.000
    O377    O    0.45321   0.79113   0.83912   1.000
    O378    O    0.56435   0.66638   0.84606   1.000
    O379    O    0.61702   0.16343   0.84916   1.000
    O380    O    0.44727   0.70377   0.85583   1.000
    O381    O    0.34427   0.75366   0.86071   1.000
    O382    O    0.72239   0.20444   0.85853   1.000
    O383    O    0.81823   0.25716   0.86267   1.000
    O384    O    0.46753   0.51698   0.87103   1.000
    O385    O    0.46226   0.60191   0.87171   1.000
    O386    O    0.69434   0.10428   0.87745   1.000
    O387    O    0.70550   0.02581   0.87838   1.000
    O388    O    0.37446   0.54247   0.88352   1.000
    O389    O    0.45189   0.53586   0.91469   1.000
    O390    O    0.76903   0.05313   0.89587   1.000
    O391    O    0.65228   0.03951   0.92027   1.000
    O392    O    0.66860   0.53208   0.93776   1.000
    O393    O    0.58428   0.88312   0.95480   1.000
    O394    O    0.54390   0.52424   0.94986   1.000
    O395    O    0.40622   0.51379   0.96721   1.000
    O396    O    0.57796   0.97199   0.95767   1.000
    O397    O    0.56373   0.06958   0.96447   1.000
    O398    O    0.54398   0.15532   0.97392   1.000
    O399    O    0.28519   0.50286   0.98600   1.000
    O400    O    0.22371   0.48624   0.25538   1.000
loop_
    _geom_bond_atom_site_label_1
    _geom_bond_atom_site_label_2
    _geom_bond_distance
    _geom_bond_site_symmetry_2
    _ccdc_geom_bond_type
    C85    O188      0.54582      .   S
    C25    O188      0.54582      .   S
    C85    O189      0.70067      .   S
    C83    O189      0.70067      .   S
    C85    O190      0.69817  1_554   S
    C72    O190      0.69817      .   S
    C78    O191      0.54554      .   S
    C18    O191      0.54554      .   S
    C78    O192      0.69993      .   S
    C77    O192      0.69993      .   S
    C78    O193      0.69780  1_554   S
    C91    O193      0.69780      .   S
    C79    O194      0.70054      .   S
    C77    O194      0.70054  1_565   S
    C79    O195      0.54561      .   S
    C19    O195      0.54561      .   S
    C79    O196      0.69784      .   S
    C90    O196      0.69784  1_556   S
    C84    O197      0.70119      .   S
    C83    O197      0.70119      .   S
    C84    O198      0.54564      .   S
    C24    O198      0.54564      .   S
    C84    O199      0.69815      .   S
    C73    O199      0.69815  1_556   S
    C77    O200      0.75740      .   S
    C76    O200      0.75740      .   S
    C83    O201      0.75625      .   S
    C82    O201      0.75625      .   S
    C17    O202      0.54978      .   S
    C76    O202      0.54978      .   S
    C76    O203      0.54833      .   S
    C16    O203      0.54833  1_545   S
    C76    O204      0.72992      .   S
    C149   O204      0.72992      .   S
    C82    O205      0.54884      .   S
    C23    O205      0.54884      .   S
    C82    O206      0.73331      .   S
    C152   O206      0.73331      .   S
    C82    O207      0.54898      .   S
    C22    O207      0.54898      .   S
    C15    O208      0.54208      .   S
    C75    O208      0.54208      .   S
    C21    O209      0.54187      .   S
    C81    O209      0.54187      .   S
    C149   O210      0.67322      .   S
    C75    O210      0.67322      .   S
    C149   O211      0.68460      .   S
    C147   O211      0.68460      .   S
    C152   O212      0.67308      .   S
    C81    O212      0.67308      .   S
    C152   O213      0.68459      .   S
    C150   O213      0.68459      .   S
    C75    O214      0.67029      .   S
    C148   O214      0.67029      .   S
    C81    O215      0.67065      .   S
    C151   O215      0.67065      .   S
    C147   O216      0.66474      .   S
    C74    O216      0.66474      .   S
    C150   O217      0.66539      .   S
    C80    O217      0.66539      .   S
    C151   O218      0.68633      .   S
    C80    O218      0.68633      .   S
    C151   O219      1.11507      .   S
    C1     O219      1.11507      .   S
    C148   O220      0.68685      .   S
    C74    O220      0.68685      .   S
    C148   O221      1.11461      .   S
    C2     O221      1.11461      .   S
    C80    O222      0.54257      .   S
    C20    O222      0.54257      .   S
    C74    O223      0.54241      .   S
    C14    O223      0.54241      .   S
    C178   O224      0.62577      .   S
    C117   O224      0.62577      .   S
    C182   O225      0.62547  1_545   S
    C130   O225      0.62547      .   S
    C1     O226      1.10477  1_545   S
    C183   O226      1.10477      .   S
    C1     O227      1.67022  1_545   S
    C5     O227      1.67022      .   S
    C2     O228      1.10342      .   S
    C179   O228      1.10342  1_655   S
    C2     O229      1.62838      .   S
    C6     O229      1.62838  1_655   S
    C117   O230      0.64607      .   S
    C179   O230      0.64607      .   S
    C117   O231      0.75820      .   S
    C115   O231      0.75820      .   S
    C130   O232      0.64617      .   S
    C183   O232      0.64617      .   S
    C130   O233      0.75980      .   S
    C128   O233      0.75980      .   S
    C115   O234      0.69868      .   S
    C116   O234      0.69868      .   S
    C115   O235      0.69947      .   S
    C114   O235      0.69947      .   S
    C49    O236      0.54463      .   S
    C116   O236      0.54463      .   S
    C128   O237      0.69860  1_655   S
    C129   O237      0.69860      .   S
    C128   O238      0.69952      .   S
    C127   O238      0.69952      .   S
    C58    O239      0.54441      .   S
    C129   O239      0.54441      .   S
    C48    O240      0.54438      .   S
    C114   O240      0.54438      .   S
    C57    O241      0.54432      .   S
    C127   O241      0.54432      .   S
    C116   O242      0.69930      .   S
    C112   O242      0.69930      .   S
    C129   O243      0.69899      .   S
    C125   O243      0.69899      .   S
    C114   O244      0.67438      .   S
    C163   O244      0.67438      .   S
    C127   O245      0.67483      .   S
    C167   O245      0.67483  1_455   S
    C180   O246      0.64182      .   S
    C124   O246      0.64182      .   S
    C180   O247      1.21877      .   S
    C5     O247      1.21877      .   S
    C176   O248      0.64252      .   S
    C111   O248      0.64252      .   S
    C176   O249      1.22864      .   S
    C6     O249      1.22864  1_655   S
    C112   O250      0.69745      .   S
    C113   O250      0.69745      .   S
    C112   O251      0.75877      .   S
    C111   O251      0.75877      .   S
    C125   O252      0.69710      .   S
    C126   O252      0.69710      .   S
    C125   O253      0.75794      .   S
    C124   O253      0.75794      .   S
    C167   O254      0.67492      .   S
    C126   O254      0.67492      .   S
    C167   O255      1.13377      .   S
    C6     O255      1.13377  1_655   S
    C163   O256      0.67457      .   S
    C113   O256      0.67457      .   S
    C163   O257      1.13439      .   S
    C5     O257      1.13439  1_565   S
    C126   O258      0.54414      .   S
    C56    O258      0.54414      .   S
    C113   O259      0.54407      .   S
    C47    O259      0.54407      .   S
    C111   O260      0.62910      .   S
    C177   O260      0.62910      .   S
    C124   O261      0.62954      .   S
    C181   O261      0.62954      .   S
    C6     O262      1.10281      .   S
    C164   O262      1.10281      .   S
    C5     O263      1.10386      .   S
    C160   O263      1.10386      .   S
    C160   O264      0.68377      .   S
    C106   O264      0.68377      .   S
    C160   O265      0.66939      .   S
    C105   O265      0.66939      .   S
    C164   O266      0.68355      .   S
    C119   O266      0.68355      .   S
    C164   O267      0.66943      .   S
    C118   O267      0.66943      .   S
    C42    O268      0.54227      .   S
    C106   O268      0.54227      .   S
    C51    O269      0.54229      .   S
    C119   O269      0.54229      .   S
    C50    O270      0.54246      .   S
    C118   O270      0.54246      .   S
    C41    O271      0.54230      .   S
    C105   O271      0.54230      .   S
    C106   O272      0.66467      .   S
    C161   O272      0.66467      .   S
    C119   O273      0.66478      .   S
    C165   O273      0.66478      .   S
    C118   O274      0.67357      .   S
    C166   O274      0.67357      .   S
    C105   O275      0.67372      .   S
    C162   O275      0.67372      .   S
    C64    O276      0.54553      .   S
    C136   O276      0.54553      .   S
    C37    O277      0.54548      .   S
    C97    O277      0.54548      .   S
    C54    O278      0.54426      .   S
    C122   O278      0.54426      .   S
    C45    O279      0.54425      .   S
    C109   O279      0.54425      .   S
    C62    O280      0.55137      .   S
    C133   O280      0.55137      .   S
    C35    O281      0.55123      .   S
    C94    O281      0.55123      .   S
    C136   O282      0.69742      .   S
    C122   O282      0.69742      .   S
    C136   O283      0.70007  1_545   S
    C134   O283      0.70007      .   S
    C97    O284      0.69742      .   S
    C109   O284      0.69742      .   S
    C97    O285      0.69992      .   S
    C95    O285      0.69992      .   S
    C122   O286      0.69890      .   S
    C121   O286      0.69890      .   S
    C109   O287      0.69914  1_455   S
    C108   O287      0.69914      .   S
    C161   O288      0.68567      .   S
    C162   O288      0.68567      .   S
    C162   O289      0.72867      .   S
    C107   O289      0.72867      .   S
    C166   O290      0.68577      .   S
    C165   O290      0.68577      .   S
    C166   O291      0.72856      .   S
    C120   O291      0.72856      .   S
    C34    O292      0.54961      .   S
    C94    O292      0.54961      .   S
    C61    O293      0.54969      .   S
    C133   O293      0.54969      .   S
    C133   O294      0.75553      .   S
    C134   O294      0.75553      .   S
    C133   O295      0.72848      .   S
    C170   O295      0.72848      .   S
    C94    O296      0.75566      .   S
    C95    O296      0.75566      .   S
    C94    O297      0.72877      .   S
    C158   O297      0.72877      .   S
    C134   O298      0.69888      .   S
    C135   O298      0.69888      .   S
    C95    O299      0.69910      .   S
    C96    O299      0.69910  1_655   S
    C121   O300      0.75558      .   S
    C120   O300      0.75558      .   S
    C121   O301      0.70008      .   S
    C123   O301      0.70008  1_565   S
    C108   O302      0.75562      .   S
    C107   O302      0.75562      .   S
    C108   O303      0.69987      .   S
    C110   O303      0.69987      .   S
    C120   O304      0.54972      .   S
    C52    O304      0.54972      .   S
    C120   O305      0.55136      .   S
    C53    O305      0.55136      .   S
    C107   O306      0.54958      .   S
    C43    O306      0.54958      .   S
    C107   O307      0.55125      .   S
    C44    O307      0.55125      .   S
    C169   O308      0.68575      .   S
    C170   O308      0.68575      .   S
    C169   O309      0.66478      .   S
    C132   O309      0.66478      .   S
    C170   O310      0.67356      .   S
    C131   O310      0.67356      .   S
    C158   O311      0.68573      .   S
    C157   O311      0.68573      .   S
    C158   O312      0.67377      .   S
    C92    O312      0.67377      .   S
    C157   O313      0.66471      .   S
    C93    O313      0.66471      .   S
    C135   O314      0.69742      .   S
    C123   O314      0.69742      .   S
    C135   O315      0.54428      .   S
    C63    O315      0.54428      .   S
    C96    O316      0.69736      .   S
    C110   O316      0.69736      .   S
    C96    O317      0.54420      .   S
    C36    O317      0.54420      .   S
    C123   O318      0.54552      .   S
    C55    O318      0.54552      .   S
    C110   O319      0.54549      .   S
    C46    O319      0.54549      .   S
    C131   O320      0.54246      .   S
    C59    O320      0.54246      .   S
    C131   O321      0.66943      .   S
    C168   O321      0.66943      .   S
    C92    O322      0.54233      .   S
    C32    O322      0.54233      .   S
    C92    O323      0.66944      .   S
    C156   O323      0.66944      .   S
    C132   O324      0.54228      .   S
    C60    O324      0.54228      .   S
    C132   O325      0.68353      .   S
    C168   O325      0.68353      .   S
    C93    O326      0.54227      .   S
    C33    O326      0.54227      .   S
    C93    O327      0.68379      .   S
    C156   O327      0.68379      .   S
    C168   O328      1.10270      .   S
    C7     O328      1.10270      .   S
    C156   O329      1.10142      .   S
    C4     O329      1.10142      .   S
    C173   O330      0.62912      .   S
    C98    O330      0.62912      .   S
    C185   O331      0.62953      .   S
    C137   O331      0.62953      .   S
    C65    O332      0.54413      .   S
    C139   O332      0.54413      .   S
    C38    O333      0.54412      .   S
    C100   O333      0.54412      .   S
    C7     O334      1.13463  1_455   S
    C171   O334      1.13463      .   S
    C7     O335      1.22753  1_455   S
    C172   O335      1.22753      .   S
    C7     O336      1.63195  1_455   S
    C0     O336      1.63195      .   S
    C4     O337      1.13735  1_545   S
    C159   O337      1.13735      .   S
    C4     O338      1.21858      .   S
    C184   O338      1.21858      .   S
    C4     O339      1.66978      .   S
    C3     O339      1.66978      .   S
    C98    O340      0.75885      .   S
    C99    O340      0.75885      .   S
    C98    O341      0.64251      .   S
    C172   O341      0.64251      .   S
    C137   O342      0.75821      .   S
    C138   O342      0.75821      .   S
    C137   O343      0.64182      .   S
    C184   O343      0.64182      .   S
    C139   O344      0.67490      .   S
    C171   O344      0.67490      .   S
    C139   O345      0.69709      .   S
    C138   O345      0.69709      .   S
    C100   O346      0.67467      .   S
    C159   O346      0.67467      .   S
    C100   O347      0.69748      .   S
    C99    O347      0.69748      .   S
    C171   O348      0.67487  1_655   S
    C140   O348      0.67487      .   S
    C159   O349      0.67664      .   S
    C101   O349      0.67664      .   S
    C138   O350      0.69903      .   S
    C142   O350      0.69903      .   S
    C99    O351      0.69933      .   S
    C103   O351      0.69933      .   S
    C140   O352      0.54433      .   S
    C66    O352      0.54433      .   S
    C140   O353      0.69959      .   S
    C141   O353      0.69959  1_655   S
    C101   O354      0.54439      .   S
    C39    O354      0.54439      .   S
    C101   O355      0.69967      .   S
    C102   O355      0.69967      .   S
    C142   O356      0.54442      .   S
    C67    O356      0.54442      .   S
    C142   O357      0.69871      .   S
    C141   O357      0.69871      .   S
    C103   O358      0.54463      .   S
    C40    O358      0.54463      .   S
    C103   O359      0.69631      .   S
    C102   O359      0.69631      .   S
    C141   O360      0.75989  1_655   S
    C143   O360      0.75989      .   S
    C102   O361      0.75875      .   S
    C104   O361      0.75875      .   S
    C175   O362      0.64613      .   S
    C104   O362      0.64613      .   S
    C175   O363      1.10301  1_455   S
    C0     O363      1.10301      .   S
    C187   O364      0.64507      .   S
    C143   O364      0.64507      .   S
    C187   O365      1.08795      .   S
    C3     O365      1.08795      .   S
    C143   O366      0.58949      .   S
    C186   O366      0.58949      .   S
    C104   O367      0.62572      .   S
    C174   O367      0.62572      .   S
    C26    O368      0.54242      .   S
    C86    O368      0.54242      .   S
    C8     O369      0.54252      .   S
    C68    O369      0.54252      .   S
    C0     O370      1.11453      .   S
    C154   O370      1.11453      .   S
    C3     O371      1.13625  1_545   S
    C145   O371      1.13625      .   S
    C86    O372      0.68683      .   S
    C154   O372      0.68683      .   S
    C86    O373      0.66474      .   S
    C153   O373      0.66474      .   S
    C68    O374      0.68628      .   S
    C145   O374      0.68628      .   S
    C68    O375      0.66534      .   S
    C144   O375      0.66534      .   S
    C154   O376      0.67040      .   S
    C87    O376      0.67040      .   S
    C145   O377      0.67062      .   S
    C69    O377      0.67062      .   S
    C144   O378      0.68460      .   S
    C146   O378      0.68460      .   S
    C153   O379      0.68466      .   S
    C155   O379      0.68466      .   S
    C69    O380      0.67309      .   S
    C146   O380      0.67309      .   S
    C69    O381      0.54189      .   S
    C9     O381      0.54189      .   S
    C87    O382      0.67318      .   S
    C155   O382      0.67318      .   S
    C87    O383      0.54207      .   S
    C27    O383      0.54207      .   S
    C10    O384      0.54896      .   S
    C70    O384      0.54896      .   S
    C146   O385      0.73334      .   S
    C70    O385      0.73334      .   S
    C155   O386      0.72997      .   S
    C88    O386      0.72997      .   S
    C28    O387      0.48539      .   S
    C88    O387      0.48539      .   S
    C11    O388      0.54882      .   S
    C70    O388      0.54882      .   S
    C70    O389      0.75626      .   S
    C71    O389      0.75626      .   S
    C88    O390      0.54976      .   S
    C29    O390      0.54976      .   S
    C88    O391      0.75737      .   S
    C89    O391      0.75737      .   S
    C12    O392      0.54564      .   S
    C72    O392      0.54564      .   S
    C31    O393      0.54563      .   S
    C91    O393      0.54563      .   S
    C71    O394      0.70119      .   S
    C72    O394      0.70119      .   S
    C71    O395      0.70066      .   S
    C73    O395      0.70066      .   S
    C89    O396      0.70058  1_545   S
    C91    O396      0.70058      .   S
    C89    O397      0.69990      .   S
    C90    O397      0.69990      .   S
    C30    O398      0.54554      .   S
    C90    O398      0.54554      .   S
    C13    O399      0.54582      .   S
    C73    O399      0.54582      .   S
    C176   O400      1.27946      .   S
    C2     O400      1.27946      .   S
