# CIF file generated by openbabel 2.4.90, see http://openbabel.sf.net
data_I
_chemical_name_common ''
_cell_length_a 14.004
_cell_length_b 15.377
_cell_length_c 15.348
_cell_angle_alpha 88.196
_cell_angle_beta 85.279
_cell_angle_gamma 85.566
_space_group_name_H-M_alt 'P 1'
_space_group_name_Hall 'P 1'
loop_
    _symmetry_equiv_pos_as_xyz
    x,y,z
loop_
    _atom_site_label
    _atom_site_type_symbol
    _atom_site_fract_x
    _atom_site_fract_y
    _atom_site_fract_z
    _atom_site_occupancy
    H0      H    0.92880   0.78381   0.87386   1.000
    H1      H    0.93143   0.78314   0.03565   1.000
    H2      H    0.64477   0.90915   0.05580   1.000
    H3      H    0.63883   0.82817   0.18083   1.000
    H4      H    0.64204   0.90488   0.89410   1.000
    H5      H    0.64276   0.82884   0.34243   1.000
    H6      H    0.94491   0.86263   0.31309   1.000
    H7      H    0.94191   0.86566   0.15209   1.000
    H8      H    0.93548   0.10948   0.60961   1.000
    H9      H    0.62848   0.13875   0.60879   1.000
    H10     H    0.63273   0.29959   0.61224   1.000
    H11     H    0.94135   0.26871   0.61710   1.000
    H12     H    0.92951   0.39352   0.54276   1.000
    H13     H    0.93321   0.55475   0.54123   1.000
    H14     H    0.02608   0.97372   0.62030   1.000
    H15     H    0.06043   0.70646   0.59010   1.000
    H16     H    0.23778   0.70468   0.59312   1.000
    H17     H    0.20090   0.98354   0.63126   1.000
    H18     H    0.36751   0.71290   0.66019   1.000
    H19     H    0.34674   0.98294   0.56965   1.000
    H20     H    0.54502   0.72209   0.65728   1.000
    H21     H    0.52367   0.98193   0.57904   1.000
    H22     H    0.65652   0.57738   0.68359   1.000
    H23     H    0.65289   0.41619   0.68920   1.000
    H24     H    0.07121   0.21620   0.12616   1.000
    H25     H    0.06858   0.21687   0.96436   1.000
    H26     H    0.35524   0.09086   0.94421   1.000
    H27     H    0.36118   0.17184   0.81918   1.000
    H28     H    0.35797   0.09513   0.10580   1.000
    H29     H    0.35725   0.17118   0.65758   1.000
    H30     H    0.05510   0.13739   0.68692   1.000
    H31     H    0.05810   0.13435   0.84792   1.000
    H32     H    0.06453   0.89053   0.39040   1.000
    H33     H    0.37154   0.86126   0.39123   1.000
    H34     H    0.36728   0.70042   0.38778   1.000
    H35     H    0.05866   0.73129   0.38290   1.000
    H36     H    0.07051   0.60649   0.45725   1.000
    H37     H    0.06681   0.44526   0.45879   1.000
    H38     H    0.97393   0.02629   0.37971   1.000
    H39     H    0.93958   0.29355   0.40992   1.000
    H40     H    0.76223   0.29533   0.40689   1.000
    H41     H    0.79911   0.01647   0.36876   1.000
    H42     H    0.63251   0.28711   0.33982   1.000
    H43     H    0.65328   0.01707   0.43036   1.000
    H44     H    0.45499   0.27792   0.34273   1.000
    H45     H    0.47634   0.01808   0.42097   1.000
    H46     H    0.34350   0.42263   0.31642   1.000
    H47     H    0.34713   0.58382   0.31073   1.000
    C48     C    0.78415   0.84326   0.77660   1.000
    C49     C    0.78522   0.84415   0.87413   1.000
    C50     C    0.86693   0.81081   0.91464   1.000
    C51     C    0.86826   0.81151   0.00508   1.000
    C52     C    0.70681   0.88004   0.01650   1.000
    C53     C    0.79544   0.84608   0.43585   1.000
    C54     C    0.79391   0.84601   0.33826   1.000
    C55     C    0.70597   0.83737   0.20940   1.000
    C56     C    0.70506   0.87860   0.92613   1.000
    C57     C    0.70778   0.83708   0.29986   1.000
    C58     C    0.87799   0.85547   0.28364   1.000
    C59     C    0.87607   0.85625   0.19319   1.000
    C60     C    0.79006   0.84693   0.15405   1.000
    C61     C    0.78833   0.84631   0.05793   1.000
    C62     C    0.77978   0.01638   0.60572   1.000
    C63     C    0.78159   0.11347   0.60993   1.000
    C64     C    0.86915   0.15138   0.61203   1.000
    C65     C    0.69656   0.16805   0.61109   1.000
    C66     C    0.69941   0.25815   0.61373   1.000
    C67     C    0.87208   0.24134   0.61500   1.000
    C68     C    0.78721   0.29676   0.61558   1.000
    C69     C    0.79029   0.39258   0.61525   1.000
    C70     C    0.86955   0.43332   0.57453   1.000
    C71     C    0.87186   0.52364   0.57301   1.000
    C72     C    0.79468   0.57640   0.61145   1.000
    C73     C    0.07611   0.91597   0.61561   1.000
    C74     C    0.09538   0.76619   0.59850   1.000
    C75     C    0.19407   0.76588   0.60190   1.000
    C76     C    0.23578   0.84453   0.61282   1.000
    C77     C    0.17398   0.92061   0.62057   1.000
    C78     C    0.34072   0.84750   0.61518   1.000
    C79     C    0.39870   0.77376   0.63998   1.000
    C80     C    0.38657   0.92404   0.59220   1.000
    C81     C    0.49727   0.77817   0.63993   1.000
    C82     C    0.48540   0.92376   0.59527   1.000
    C83     C    0.79593   0.67390   0.60859   1.000
    C84     C    0.71571   0.53637   0.65247   1.000
    C85     C    0.71378   0.44607   0.65487   1.000
    C86     C    0.21587   0.15676   0.22341   1.000
    C87     C    0.21478   0.15584   0.12589   1.000
    C88     C    0.13308   0.18921   0.08537   1.000
    C89     C    0.13174   0.18849   0.99494   1.000
    C90     C    0.29319   0.11996   0.98347   1.000
    C91     C    0.20458   0.15393   0.56416   1.000
    C92     C    0.20611   0.15401   0.66175   1.000
    C93     C    0.29403   0.16266   0.79062   1.000
    C94     C    0.29496   0.12142   0.07388   1.000
    C95     C    0.29224   0.16292   0.70016   1.000
    C96     C    0.12203   0.14453   0.71637   1.000
    C97     C    0.12393   0.14378   0.80681   1.000
    C98     C    0.20995   0.15307   0.84596   1.000
    C99     C    0.21168   0.15373   0.94208   1.000
    C100    C    0.22024   0.98363   0.39429   1.000
    C101    C    0.21843   0.88655   0.39008   1.000
    C102    C    0.13087   0.84863   0.38799   1.000
    C103    C    0.30346   0.83196   0.38893   1.000
    C104    C    0.30061   0.74186   0.38628   1.000
    C105    C    0.12793   0.75867   0.38500   1.000
    C106    C    0.21280   0.70325   0.38440   1.000
    C107    C    0.20972   0.60743   0.38476   1.000
    C108    C    0.13047   0.56669   0.42500   1.000
    C109    C    0.12815   0.47637   0.42700   1.000
    C110    C    0.20534   0.42361   0.38858   1.000
    C111    C    0.92391   0.08404   0.38441   1.000
    C112    C    0.90463   0.23382   0.40152   1.000
    C113    C    0.80594   0.23413   0.39809   1.000
    C114    C    0.76424   0.15548   0.38720   1.000
    C115    C    0.82603   0.07940   0.37944   1.000
    C116    C    0.65929   0.15251   0.38483   1.000
    C117    C    0.60132   0.22625   0.36003   1.000
    C118    C    0.61344   0.07597   0.40775   1.000
    C119    C    0.50274   0.22184   0.36008   1.000
    C120    C    0.51461   0.07625   0.40474   1.000
    C121    C    0.20409   0.32611   0.39142   1.000
    C122    C    0.28430   0.46364   0.34750   1.000
    C123    C    0.28624   0.55393   0.34516   1.000
    N124    N    0.03698   0.84002   0.60458   1.000
    N125    N    0.54042   0.85205   0.61798   1.000
    N126    N    0.96303   0.15999   0.39543   1.000
    N127    N    0.45959   0.14796   0.38203   1.000
    O128    O    0.69993   0.98588   0.59309   1.000
    O129    O    0.85861   0.97125   0.61482   1.000
    O130    O    0.86263   0.81916   0.73322   1.000
    O131    O    0.70477   0.86692   0.74433   1.000
    O132    O    0.71686   0.71749   0.63022   1.000
    O133    O    0.87565   0.70577   0.58467   1.000
    O134    O    0.71565   0.83792   0.48056   1.000
    O135    O    0.87575   0.85559   0.46667   1.000
    O136    O    0.30009   0.01414   0.40692   1.000
    O137    O    0.14140   0.02876   0.38519   1.000
    O138    O    0.13738   0.18084   0.26679   1.000
    O139    O    0.29525   0.13309   0.25568   1.000
    O140    O    0.28316   0.28252   0.36979   1.000
    O141    O    0.12437   0.29424   0.41530   1.000
    O142    O    0.28437   0.16209   0.51945   1.000
    O143    O    0.12427   0.14442   0.53334   1.000
loop_
    _geom_bond_atom_site_label_1
    _geom_bond_atom_site_label_2
    _geom_bond_distance
    _geom_bond_site_symmetry_2
    _ccdc_geom_bond_type
    C51    H1        1.09024      .   S
    C51    C61       1.40801      .   S
    C51    C50       1.39012  1_554   S
    C52    H2        1.09074      .   S
    C52    C61       1.40844      .   S
    C52    C56       1.39014  1_554   S
    C61    C60       1.47778      .   S
    C94    H28       1.08889      .   S
    C94    C87       1.40176      .   S
    C94    C90       1.39079  1_554   S
    C88    C87       1.40194      .   S
    C88    H24       1.08919      .   S
    C88    C89       1.39001  1_554   S
    C87    C86       1.49859      .   S
    H7     C59       1.08997      .   S
    C60    C59       1.40834      .   S
    C60    C55       1.40862      .   S
    H3     C55       1.09030      .   S
    C59    C58       1.39035      .   S
    C55    C57       1.39055      .   S
    C86    O139      1.27675      .   S
    C86    O138      1.27306      .   S
    C58    H6        1.08792      .   S
    C58    C54       1.40240      .   S
    C57    C54       1.40314      .   S
    C57    H5        1.08931      .   S
    H47    C123      1.09022      .   S
    H46    C122      1.08874      .   S
    C54    C53       1.49976      .   S
    H42    C117      1.08872      .   S
    H44    C119      1.08976      .   S
    C123   C122      1.39003      .   S
    C123   C107      1.40800      .   S
    C122   C110      1.40193      .   S
    C117   C119      1.38727      .   S
    C117   C116      1.40397      .   S
    C119   N127      1.34822      .   S
    H41    C115      1.08719      .   S
    O140   C121      1.27453      .   S
    C115   C111      1.38639      .   S
    C115   C114      1.40242      .   S
    H38    C111      1.08817      .   S
    N127   C120      1.34899      .   S
    H35    C105      1.09015      .   S
    C106   C107      1.47712      .   S
    C106   C105      1.40750      .   S
    C106   C104      1.40896      .   S
    C111   N126      1.34882      .   S
    C107   C108      1.40573      .   S
    C116   C114      1.47728      .   S
    C116   C118      1.40536      .   S
    C105   C102      1.38930      .   S
    O137   C100      1.27306  1_545   S
    C104   H34       1.09046      .   S
    C104   C103      1.39104      .   S
    C114   C113      1.40359      .   S
    C102   C101      1.40099      .   S
    C102   H32       1.08752      .   S
    C110   C121      1.49987      .   S
    C110   C109      1.40146      .   S
    C103   C101      1.40199      .   S
    C103   H33       1.08912      .   S
    C101   C100      1.49856      .   S
    C121   O141      1.27551      .   S
    C100   O136      1.27690  1_565   S
    N126   C112      1.34796      .   S
    C113   C112      1.38699      .   S
    C113   H40       1.08811      .   S
    C112   H39       1.08959      .   S
    C120   C118      1.38824      .   S
    C120   H45       1.08966      .   S
    C118   H43       1.08894      .   S
    C108   C109      1.39100      .   S
    C108   H36       1.09347      .   S
    C109   H37       1.08847      .   S
    C53    O135      1.27569      .   S
    C53    O134      1.27480      .   S
    O142   C91       1.27482      .   S
    O143   C91       1.27568      .   S
    H13    C71       1.08847      .   S
    H12    C70       1.09044      .   S
    C91    C92       1.49977      .   S
    H19    C80       1.08862      .   S
    C71    C70       1.39109      .   S
    C71    C72       1.40146      .   S
    C70    C69       1.40853      .   S
    H21    C82       1.08966      .   S
    O133   C83       1.27566      .   S
    H15    C74       1.08960      .   S
    C80    C82       1.38837      .   S
    C80    C78       1.40554      .   S
    O128   C62       1.27687  1_565   S
    H16    C75       1.08809      .   S
    C82    N125      1.34897      .   S
    C74    C75       1.38695      .   S
    C74    N124      1.34795      .   S
    C75    C76       1.40364      .   S
    N124   C73       1.34883      .   S
    C62    C63       1.49859      .   S
    C62    O129      1.27305  1_545   S
    C83    C72       1.49988      .   S
    C83    O132      1.27451      .   S
    H9     C65       1.08912      .   S
    H8     C64       1.08752      .   S
    C63    C65       1.40199      .   S
    C63    C64       1.40099      .   S
    C65    C66       1.39105      .   S
    C72    C84       1.40170      .   S
    C64    C67       1.38928      .   S
    H10    C66       1.09046      .   S
    C76    C78       1.47728      .   S
    C76    C77       1.40242      .   S
    C66    C68       1.40887      .   S
    C67    C68       1.40754      .   S
    C67    H11       1.09013      .   S
    C78    C79       1.40394      .   S
    C69    C68       1.47716      .   S
    C69    C85       1.40798      .   S
    C73    H14       1.08818      .   S
    C73    C77       1.38639      .   S
    N125   C81       1.34824      .   S
    C77    H17       1.08718      .   S
    C81    C79       1.38729      .   S
    C81    H20       1.08974      .   S
    C79    H18       1.08872      .   S
    C84    C85       1.39004      .   S
    C84    H22       1.08893      .   S
    C85    H23       1.08966      .   S
    H29    C95       1.08939      .   S
    C92    C95       1.40318      .   S
    C92    C96       1.40243      .   S
    H30    C96       1.08793      .   S
    C95    C93       1.39055      .   S
    C96    C97       1.39019      .   S
    O130   C48       1.27308      .   S
    O131   C48       1.27675      .   S
    C48    C49       1.49870      .   S
    C93    H27       1.09025      .   S
    C93    C98       1.40858      .   S
    C97    C98       1.40837      .   S
    C97    H31       1.09003      .   S
    C98    C99       1.47782      .   S
    H0     C50       1.08912      .   S
    C49    C50       1.40187      .   S
    C49    C56       1.40174      .   S
    H4     C56       1.08975      .   S
    C99    C90       1.40812      .   S
    C99    C89       1.40805      .   S
    H26    C90       1.09041      .   S
    H25    C89       1.09029      .   S
