# CIF file generated by openbabel 2.4.90, see http://openbabel.sf.net
data_I
_chemical_name_common ''
_cell_length_a 14.004
_cell_length_b 15.377
_cell_length_c 15.348
_cell_angle_alpha 88.196
_cell_angle_beta 85.279
_cell_angle_gamma 85.566
_space_group_name_H-M_alt 'P 1'
_space_group_name_Hall 'P 1'
loop_
    _symmetry_equiv_pos_as_xyz
    x,y,z
loop_
    _atom_site_label
    _atom_site_type_symbol
    _atom_site_fract_x
    _atom_site_fract_y
    _atom_site_fract_z
    _atom_site_occupancy
    N0      N    0.78842   0.34487   0.61156   1.000
    N1      N    0.78947   0.84561   0.10607   1.000
    N2      N    0.28848   0.84604   0.61277   1.000
    N3      N    0.71154   0.15397   0.38724   1.000
    N4      N    0.21160   0.65514   0.38843   1.000
    N5      N    0.21054   0.15441   0.89393   1.000
    Zr6     Zr   0.21049   0.15532   0.39273   1.000
    O7      O    0.37958   0.15315   0.38909   1.000
    O8      O    0.04213   0.15648   0.39262   1.000
    Zr9     Zr   0.78952   0.84469   0.60728   1.000
    O10     O    0.62044   0.84686   0.61092   1.000
    O11     O    0.95788   0.84353   0.60739   1.000
    O12     O    0.21205   0.01354   0.39207   1.000
    O13     O    0.20993   0.29691   0.39163   1.000
    O14     O    0.21123   0.15530   0.25159   1.000
    O15     O    0.20973   0.15483   0.53474   1.000
    O16     O    0.78796   0.98647   0.60793   1.000
    O17     O    0.79009   0.70310   0.60837   1.000
    O18     O    0.79028   0.84518   0.46527   1.000
    O19     O    0.78878   0.84471   0.74842   1.000
loop_
    _geom_bond_atom_site_label_1
    _geom_bond_atom_site_label_2
    _geom_bond_distance
    _geom_bond_site_symmetry_2
    _ccdc_geom_bond_type
    Zr6    O7        2.36163      .   S
    N3     O7        4.64747      .   S
    Zr6    O8        2.35653      .   S
    N3     O8        4.64035  1_655   S
    Zr9    O10       2.36164      .   S
    N2     O10       4.64748      .   S
    Zr9    O11       2.35653      .   S
    N2     O11       4.64034  1_455   S
    Zr6    O12       2.17888      .   S
    N4     O12       5.51364  1_565   S
    Zr6    O13       2.17614      .   S
    N4     O13       5.50909      .   S
    Zr6    O14       2.16534      .   S
    N5     O14       5.49063  1_556   S
    Zr6    O15       2.17848      .   S
    N5     O15       5.51365      .   S
    N0     O16       5.51362  1_545   S
    Zr9    O16       2.17888      .   S
    N0     O17       5.50910      .   S
    Zr9    O17       2.17614      .   S
    N1     O18       5.51370      .   S
    Zr9    O18       2.17850      .   S
    N1     O19       5.49058  1_554   S
    Zr9    O19       2.16532      .   S
