# CIF file generated by openbabel 2.4.90, see http://openbabel.sf.net
data_I
_chemical_name_common ''
_cell_length_a 14.004
_cell_length_b 15.377
_cell_length_c 15.348
_cell_angle_alpha 88.196
_cell_angle_beta 85.279
_cell_angle_gamma 85.566
_space_group_name_H-M_alt 'P 1'
_space_group_name_Hall 'P 1'
loop_
    _symmetry_equiv_pos_as_xyz
    x,y,z
loop_
    _atom_site_label
    _atom_site_type_symbol
    _atom_site_fract_x
    _atom_site_fract_y
    _atom_site_fract_z
    _atom_site_occupancy
    C0      C    0.89103   0.83737   0.59988   1.000
    C1      C    0.68801   0.85201   0.61468   1.000
    C2      C    0.10898   0.16264   0.40013   1.000
    C3      C    0.31200   0.14800   0.38533   1.000
    C4      C    0.92880   0.78381   0.87386   1.000
    C5      C    0.93143   0.78314   0.03565   1.000
    C6      C    0.64477   0.90915   0.05580   1.000
    C7      C    0.63883   0.82817   0.18083   1.000
    C8      C    0.64204   0.90488   0.89410   1.000
    C9      C    0.64276   0.82884   0.34243   1.000
    C10     C    0.94491   0.86263   0.31309   1.000
    C11     C    0.94191   0.86566   0.15209   1.000
    C12     C    0.93548   0.10948   0.60961   1.000
    C13     C    0.62848   0.13875   0.60879   1.000
    C14     C    0.63273   0.29959   0.61224   1.000
    C15     C    0.94135   0.26871   0.61710   1.000
    C16     C    0.92951   0.39352   0.54276   1.000
    C17     C    0.93321   0.55475   0.54123   1.000
    C18     C    0.02608   0.97372   0.62030   1.000
    C19     C    0.06043   0.70646   0.59010   1.000
    C20     C    0.23778   0.70468   0.59312   1.000
    C21     C    0.20090   0.98354   0.63126   1.000
    C22     C    0.36751   0.71290   0.66019   1.000
    C23     C    0.34674   0.98294   0.56965   1.000
    C24     C    0.54502   0.72209   0.65728   1.000
    C25     C    0.52367   0.98193   0.57904   1.000
    C26     C    0.65652   0.57738   0.68359   1.000
    C27     C    0.65289   0.41619   0.68920   1.000
    C28     C    0.07121   0.21620   0.12616   1.000
    C29     C    0.06858   0.21687   0.96436   1.000
    C30     C    0.35524   0.09086   0.94421   1.000
    C31     C    0.36118   0.17184   0.81918   1.000
    C32     C    0.35797   0.09513   0.10580   1.000
    C33     C    0.35725   0.17118   0.65758   1.000
    C34     C    0.05510   0.13739   0.68692   1.000
    C35     C    0.05810   0.13435   0.84792   1.000
    C36     C    0.06453   0.89053   0.39040   1.000
    C37     C    0.37154   0.86126   0.39123   1.000
    C38     C    0.36728   0.70042   0.38778   1.000
    C39     C    0.05866   0.73129   0.38290   1.000
    C40     C    0.07051   0.60649   0.45725   1.000
    C41     C    0.06681   0.44526   0.45879   1.000
    C42     C    0.97393   0.02629   0.37971   1.000
    C43     C    0.93958   0.29355   0.40992   1.000
    C44     C    0.76223   0.29533   0.40689   1.000
    C45     C    0.79911   0.01647   0.36876   1.000
    C46     C    0.63251   0.28711   0.33982   1.000
    C47     C    0.65328   0.01707   0.43036   1.000
    C48     C    0.45499   0.27792   0.34273   1.000
    C49     C    0.47634   0.01808   0.42097   1.000
    C50     C    0.34350   0.42263   0.31642   1.000
    C51     C    0.34713   0.58382   0.31073   1.000
    C52     C    0.78415   0.84326   0.77660   1.000
    C53     C    0.78522   0.84415   0.87413   1.000
    C54     C    0.86693   0.81081   0.91464   1.000
    C55     C    0.86826   0.81151   0.00508   1.000
    C56     C    0.70681   0.88004   0.01650   1.000
    C57     C    0.79544   0.84608   0.43585   1.000
    C58     C    0.79391   0.84601   0.33826   1.000
    C59     C    0.70597   0.83737   0.20940   1.000
    C60     C    0.70506   0.87860   0.92613   1.000
    C61     C    0.70778   0.83708   0.29986   1.000
    C62     C    0.87799   0.85547   0.28364   1.000
    C63     C    0.87607   0.85625   0.19319   1.000
    C64     C    0.79006   0.84693   0.15405   1.000
    C65     C    0.78833   0.84631   0.05793   1.000
    C66     C    0.77978   0.01638   0.60572   1.000
    C67     C    0.78159   0.11347   0.60993   1.000
    C68     C    0.86915   0.15138   0.61203   1.000
    C69     C    0.69656   0.16805   0.61109   1.000
    C70     C    0.69941   0.25815   0.61373   1.000
    C71     C    0.87208   0.24134   0.61500   1.000
    C72     C    0.78721   0.29676   0.61558   1.000
    C73     C    0.79029   0.39258   0.61525   1.000
    C74     C    0.86955   0.43332   0.57453   1.000
    C75     C    0.87186   0.52364   0.57301   1.000
    C76     C    0.79468   0.57640   0.61145   1.000
    C77     C    0.07611   0.91597   0.61561   1.000
    C78     C    0.09538   0.76619   0.59850   1.000
    C79     C    0.19407   0.76588   0.60190   1.000
    C80     C    0.23578   0.84453   0.61282   1.000
    C81     C    0.17398   0.92061   0.62057   1.000
    C82     C    0.34072   0.84750   0.61518   1.000
    C83     C    0.39870   0.77376   0.63998   1.000
    C84     C    0.38657   0.92404   0.59220   1.000
    C85     C    0.49727   0.77817   0.63993   1.000
    C86     C    0.48540   0.92376   0.59527   1.000
    C87     C    0.79593   0.67390   0.60859   1.000
    C88     C    0.71571   0.53637   0.65247   1.000
    C89     C    0.71378   0.44607   0.65487   1.000
    C90     C    0.21587   0.15676   0.22341   1.000
    C91     C    0.21478   0.15584   0.12589   1.000
    C92     C    0.13308   0.18921   0.08537   1.000
    C93     C    0.13174   0.18849   0.99494   1.000
    C94     C    0.29319   0.11996   0.98347   1.000
    C95     C    0.20458   0.15393   0.56416   1.000
    C96     C    0.20611   0.15401   0.66175   1.000
    C97     C    0.29403   0.16266   0.79062   1.000
    C98     C    0.29496   0.12142   0.07388   1.000
    C99     C    0.29224   0.16292   0.70016   1.000
    C100    C    0.12203   0.14453   0.71637   1.000
    C101    C    0.12393   0.14378   0.80681   1.000
    C102    C    0.20995   0.15307   0.84596   1.000
    C103    C    0.21168   0.15373   0.94208   1.000
    C104    C    0.22024   0.98363   0.39429   1.000
    C105    C    0.21843   0.88655   0.39008   1.000
    C106    C    0.13087   0.84863   0.38799   1.000
    C107    C    0.30346   0.83196   0.38893   1.000
    C108    C    0.30061   0.74186   0.38628   1.000
    C109    C    0.12793   0.75867   0.38500   1.000
    C110    C    0.21280   0.70325   0.38440   1.000
    C111    C    0.20972   0.60743   0.38476   1.000
    C112    C    0.13047   0.56669   0.42500   1.000
    C113    C    0.12815   0.47637   0.42700   1.000
    C114    C    0.20534   0.42361   0.38858   1.000
    C115    C    0.92391   0.08404   0.38441   1.000
    C116    C    0.90463   0.23382   0.40152   1.000
    C117    C    0.80594   0.23413   0.39809   1.000
    C118    C    0.76424   0.15548   0.38720   1.000
    C119    C    0.82603   0.07940   0.37944   1.000
    C120    C    0.65929   0.15251   0.38483   1.000
    C121    C    0.60132   0.22625   0.36003   1.000
    C122    C    0.61344   0.07597   0.40775   1.000
    C123    C    0.50274   0.22184   0.36008   1.000
    C124    C    0.51461   0.07625   0.40474   1.000
    C125    C    0.20409   0.32611   0.39142   1.000
    C126    C    0.28430   0.46364   0.34750   1.000
    C127    C    0.28624   0.55393   0.34516   1.000
    C128    C    0.03698   0.84002   0.60458   1.000
    C129    C    0.54042   0.85205   0.61798   1.000
    C130    C    0.96303   0.15999   0.39543   1.000
    C131    C    0.45959   0.14796   0.38203   1.000
    C132    C    0.69993   0.98588   0.59309   1.000
    C133    C    0.85861   0.97125   0.61482   1.000
    C134    C    0.86263   0.81916   0.73322   1.000
    C135    C    0.70477   0.86692   0.74433   1.000
    C136    C    0.71686   0.71749   0.63022   1.000
    C137    C    0.87565   0.70577   0.58467   1.000
    C138    C    0.71565   0.83792   0.48056   1.000
    C139    C    0.87575   0.85559   0.46667   1.000
    C140    C    0.30009   0.01414   0.40692   1.000
    C141    C    0.14140   0.02876   0.38519   1.000
    C142    C    0.13738   0.18084   0.26679   1.000
    C143    C    0.29525   0.13309   0.25568   1.000
    C144    C    0.28316   0.28252   0.36979   1.000
    C145    C    0.12437   0.29424   0.41530   1.000
    C146    C    0.28437   0.16209   0.51945   1.000
    C147    C    0.12427   0.14442   0.53334   1.000
    O148    O    0.89985   0.79733   0.02036   1.000
    O149    O    0.82830   0.82891   0.03150   1.000
    O150    O    0.86760   0.81116   0.95986   1.000
    O151    O    0.67579   0.89460   0.03615   1.000
    O152    O    0.74757   0.86317   0.03721   1.000
    O153    O    0.70594   0.87932   0.97131   1.000
    O154    O    0.78920   0.84662   0.10599   1.000
    O155    O    0.32646   0.10828   0.08984   1.000
    O156    O    0.25487   0.13863   0.09988   1.000
    O157    O    0.29407   0.12069   0.02867   1.000
    O158    O    0.17393   0.17253   0.10563   1.000
    O159    O    0.10215   0.20271   0.10576   1.000
    O160    O    0.13241   0.18885   0.04015   1.000
    O161    O    0.21533   0.15630   0.17465   1.000
    O162    O    0.90899   0.86095   0.17264   1.000
    O163    O    0.83307   0.85159   0.17362   1.000
    O164    O    0.74802   0.84215   0.18172   1.000
    O165    O    0.67240   0.83277   0.19511   1.000
    O166    O    0.87703   0.85586   0.23841   1.000
    O167    O    0.70687   0.83723   0.25463   1.000
    O168    O    0.25556   0.14493   0.23954   1.000
    O169    O    0.17663   0.16880   0.24510   1.000
    O170    O    0.30362   0.14054   0.32050   1.000
    O171    O    0.12318   0.17174   0.33346   1.000
    O172    O    0.91145   0.85905   0.29836   1.000
    O173    O    0.83595   0.85074   0.31095   1.000
    O174    O    0.75084   0.84155   0.31906   1.000
    O175    O    0.67527   0.83296   0.32114   1.000
    O176    O    0.31668   0.56888   0.32794   1.000
    O177    O    0.31390   0.44314   0.33196   1.000
    O178    O    0.79467   0.84605   0.38705   1.000
    O179    O    0.61691   0.25668   0.34992   1.000
    O180    O    0.47887   0.24988   0.35140   1.000
    O181    O    0.28527   0.50879   0.34633   1.000
    O182    O    0.24798   0.58068   0.36496   1.000
    O183    O    0.24482   0.44363   0.36804   1.000
    O184    O    0.55203   0.22404   0.36005   1.000
    O185    O    0.63031   0.18938   0.37243   1.000
    O186    O    0.48117   0.18490   0.37105   1.000
    O187    O    0.81257   0.04794   0.37410   1.000
    O188    O    0.29758   0.21526   0.37756   1.000
    O189    O    0.24362   0.30432   0.38060   1.000
    O190    O    0.87497   0.08172   0.38192   1.000
    O191    O    0.79514   0.11744   0.38332   1.000
    O192    O    0.94892   0.05517   0.38206   1.000
    O193    O    0.38580   0.14798   0.38368   1.000
    O194    O    0.48710   0.11210   0.39338   1.000
    O195    O    0.09330   0.74498   0.38395   1.000
    O196    O    0.21126   0.65534   0.38458   1.000
    O197    O    0.17037   0.73096   0.38470   1.000
    O198    O    0.25671   0.72256   0.38534   1.000
    O199    O    0.94347   0.12201   0.38992   1.000
    O200    O    0.17009   0.58706   0.40488   1.000
    O201    O    0.71177   0.15399   0.38601   1.000
    O202    O    0.63637   0.11424   0.39629   1.000
    O203    O    0.12940   0.80365   0.38649   1.000
    O204    O    0.18082   0.00619   0.38974   1.000
    O205    O    0.12519   0.09570   0.39266   1.000
    O206    O    0.30604   0.08107   0.39612   1.000
    O207    O    0.29818   0.15504   0.45239   1.000
    O208    O    0.33395   0.72114   0.38703   1.000
    O209    O    0.30203   0.78691   0.38760   1.000
    O210    O    0.78509   0.19480   0.39264   1.000
    O211    O    0.17465   0.86759   0.38903   1.000
    O212    O    0.09770   0.86958   0.38919   1.000
    O213    O    0.20471   0.37486   0.39000   1.000
    O214    O    0.16675   0.44999   0.40779   1.000
    O215    O    0.26094   0.85925   0.38950   1.000
    O216    O    0.33750   0.84661   0.39008   1.000
    O217    O    0.21933   0.93509   0.39218   1.000
    O218    O    0.16423   0.31018   0.40336   1.000
    O219    O    0.26016   0.99888   0.40060   1.000
    O220    O    0.03601   0.16132   0.39778   1.000
    O221    O    0.93383   0.19690   0.39847   1.000
    O222    O    0.85529   0.23397   0.39980   1.000
    O223    O    0.78409   0.26473   0.40249   1.000
    O224    O    0.11668   0.22844   0.40771   1.000
    O225    O    0.11663   0.15353   0.46673   1.000
    O226    O    0.92211   0.26368   0.40572   1.000
    O227    O    0.56403   0.07611   0.40624   1.000
    O228    O    0.49548   0.04717   0.41285   1.000
    O229    O    0.63336   0.04652   0.41905   1.000
    O230    O    0.12931   0.52153   0.42600   1.000
    O231    O    0.10049   0.58659   0.44112   1.000
    O232    O    0.09748   0.46082   0.44289   1.000
    O233    O    0.83559   0.85084   0.45126   1.000
    O234    O    0.75554   0.84200   0.45820   1.000
    O235    O    0.88339   0.84648   0.53327   1.000
    O236    O    0.70183   0.84497   0.54762   1.000
    O237    O    0.24447   0.15801   0.54180   1.000
    O238    O    0.16442   0.14917   0.54875   1.000
    O239    O    0.90253   0.53919   0.55712   1.000
    O240    O    0.89953   0.41342   0.55864   1.000
    O241    O    0.20534   0.15397   0.61295   1.000
    O242    O    0.36665   0.95349   0.58092   1.000
    O243    O    0.87071   0.47848   0.57377   1.000
    O244    O    0.83327   0.55002   0.59223   1.000
    O245    O    0.82992   0.41295   0.59489   1.000
    O246    O    0.50454   0.95284   0.58715   1.000
    O247    O    0.88334   0.77157   0.59227   1.000
    O248    O    0.83579   0.68984   0.59663   1.000
    O249    O    0.07791   0.73633   0.59430   1.000
    O250    O    0.43599   0.92390   0.59373   1.000
    O251    O    0.36365   0.88577   0.60369   1.000
    O252    O    0.73985   0.00113   0.59940   1.000
    O253    O    0.69397   0.91895   0.60388   1.000
    O254    O    0.21593   0.73528   0.59751   1.000
    O255    O    0.51291   0.88791   0.60662   1.000
    O256    O    0.14473   0.76604   0.60020   1.000
    O257    O    0.06618   0.80311   0.60154   1.000
    O258    O    0.96401   0.83870   0.60223   1.000
    O259    O    0.87482   0.90431   0.60735   1.000
    O260    O    0.87683   0.82827   0.66655   1.000
    O261    O    0.21493   0.80521   0.60736   1.000
    O262    O    0.05654   0.87800   0.61009   1.000
    O263    O    0.78068   0.06492   0.60782   1.000
    O264    O    0.81919   0.99382   0.61027   1.000
    O265    O    0.79530   0.62515   0.61002   1.000
    O266    O    0.75639   0.69569   0.61940   1.000
    O267    O    0.66252   0.15340   0.60994   1.000
    O268    O    0.90231   0.13043   0.61082   1.000
    O269    O    0.73907   0.14076   0.61051   1.000
    O270    O    0.82537   0.13242   0.61098   1.000
    O271    O    0.69798   0.21310   0.61241   1.000
    O272    O    0.75519   0.55638   0.63196   1.000
    O273    O    0.87062   0.19636   0.61351   1.000
    O274    O    0.66607   0.27887   0.61298   1.000
    O275    O    0.28825   0.84602   0.61400   1.000
    O276    O    0.20488   0.88257   0.61669   1.000
    O277    O    0.74331   0.27745   0.61465   1.000
    O278    O    0.61422   0.85203   0.61633   1.000
    O279    O    0.70244   0.78475   0.62245   1.000
    O280    O    0.69639   0.85947   0.67950   1.000
    O281    O    0.82965   0.26905   0.61529   1.000
    O282    O    0.90672   0.25503   0.61605   1.000
    O283    O    0.36971   0.81063   0.62758   1.000
    O284    O    0.78875   0.34467   0.61541   1.000
    O285    O    0.75204   0.41933   0.63506   1.000
    O286    O    0.05110   0.94484   0.61795   1.000
    O287    O    0.12504   0.91829   0.61809   1.000
    O288    O    0.51885   0.81511   0.62895   1.000
    O289    O    0.18744   0.95207   0.62591   1.000
    O290    O    0.44798   0.77597   0.63995   1.000
    O291    O    0.52115   0.75013   0.64860   1.000
    O292    O    0.38310   0.74333   0.65008   1.000
    O293    O    0.71474   0.49122   0.65367   1.000
    O294    O    0.68611   0.55687   0.66803   1.000
    O295    O    0.68333   0.43113   0.67203   1.000
    O296    O    0.32475   0.16705   0.67887   1.000
    O297    O    0.24917   0.15847   0.68095   1.000
    O298    O    0.16407   0.14927   0.68906   1.000
    O299    O    0.08856   0.14096   0.70164   1.000
    O300    O    0.29314   0.16279   0.74539   1.000
    O301    O    0.12298   0.14416   0.76159   1.000
    O302    O    0.82339   0.83121   0.75491   1.000
    O303    O    0.74446   0.85509   0.76046   1.000
    O304    O    0.78468   0.84371   0.82536   1.000
    O305    O    0.32761   0.16725   0.80490   1.000
    O306    O    0.25199   0.15786   0.81829   1.000
    O307    O    0.16694   0.14842   0.82638   1.000
    O308    O    0.09102   0.13907   0.82736   1.000
    O309    O    0.21082   0.15340   0.89402   1.000
    O310    O    0.89786   0.79731   0.89425   1.000
    O311    O    0.82607   0.82748   0.89438   1.000
    O312    O    0.74514   0.86138   0.90013   1.000
    O313    O    0.67355   0.89174   0.91011   1.000
    O314    O    0.25244   0.13684   0.96277   1.000
    O315    O    0.17171   0.17111   0.96851   1.000
    O316    O    0.32421   0.10541   0.96384   1.000
    O317    O    0.10016   0.20268   0.97965   1.000
    O318    O    0.78952   0.84469   0.60728   1.000
    O319    O    0.21049   0.15532   0.39273   1.000
loop_
    _geom_bond_atom_site_label_1
    _geom_bond_atom_site_label_2
    _geom_bond_distance
    _geom_bond_site_symmetry_2
    _ccdc_geom_bond_type
    C55    O148      0.54512      .   S
    C5     O148      0.54512      .   S
    C55    O149      0.70401      .   S
    C65    O149      0.70401      .   S
    C55    O150      0.69506  1_554   S
    C54    O150      0.69506      .   S
    C56    O151      0.54537      .   S
    C6     O151      0.54537      .   S
    C56    O152      0.70422      .   S
    C65    O152      0.70422      .   S
    C56    O153      0.69507  1_554   S
    C60    O153      0.69507      .   S
    C65    O154      0.73889      .   S
    C64    O154      0.73889      .   S
    C98    O155      0.54445      .   S
    C32    O155      0.54445      .   S
    C98    O156      0.70088      .   S
    C91    O156      0.70088      .   S
    C98    O157      0.69539      .   S
    C94    O157      0.69539  1_556   S
    C92    O158      0.70097      .   S
    C91    O158      0.70097      .   S
    C92    O159      0.54460      .   S
    C28    O159      0.54460      .   S
    C92    O160      0.69500      .   S
    C93    O160      0.69500  1_556   S
    C91    O161      0.74929      .   S
    C90    O161      0.74929      .   S
    C11    O162      0.54498      .   S
    C63    O162      0.54498      .   S
    C64    O163      0.70417      .   S
    C63    O163      0.70417      .   S
    C64    O164      0.70431      .   S
    C59    O164      0.70431      .   S
    C7     O165      0.54515      .   S
    C59    O165      0.54515      .   S
    C63    O166      0.69518      .   S
    C62    O166      0.69518      .   S
    C59    O167      0.69527      .   S
    C61    O167      0.69527      .   S
    C90    O168      0.63838      .   S
    C143   O168      0.63838      .   S
    C90    O169      0.63653      .   S
    C142   O169      0.63653      .   S
    C143   O170      1.02238      .   S
    C3     O170      1.02238      .   S
    C142   O171      1.03342      .   S
    C2     O171      1.03342      .   S
    C62    O172      0.54396      .   S
    C10    O172      0.54396      .   S
    C62    O173      0.70120      .   S
    C58    O173      0.70120      .   S
    C61    O174      0.70157      .   S
    C58    O174      0.70157      .   S
    C61    O175      0.54466      .   S
    C9     O175      0.54466      .   S
    C51    O176      0.54511      .   S
    C127   O176      0.54511      .   S
    C50    O177      0.54437      .   S
    C126   O177      0.54437      .   S
    C58    O178      0.74988      .   S
    C57    O178      0.74988      .   S
    C46    O179      0.54436      .   S
    C121   O179      0.54436      .   S
    C48    O180      0.54488      .   S
    C123   O180      0.54488      .   S
    C127   O181      0.69501      .   S
    C126   O181      0.69501      .   S
    C127   O182      0.70400      .   S
    C111   O182      0.70400      .   S
    C126   O183      0.70096      .   S
    C114   O183      0.70096      .   S
    C121   O184      0.69363      .   S
    C123   O184      0.69363      .   S
    C121   O185      0.70199      .   S
    C120   O185      0.70199      .   S
    C123   O186      0.67411      .   S
    C131   O186      0.67411      .   S
    C45    O187      0.54359      .   S
    C119   O187      0.54359      .   S
    C144   O188      1.04338      .   S
    C3     O188      1.04338      .   S
    C144   O189      0.63726      .   S
    C125   O189      0.63726      .   S
    C119   O190      0.69320      .   S
    C115   O190      0.69320      .   S
    C119   O191      0.70121      .   S
    C118   O191      0.70121      .   S
    C42    O192      0.54409      .   S
    C115   O192      0.54409      .   S
    C131   O193      1.03163      .   S
    C3     O193      1.03163      .   S
    C131   O194      0.67450      .   S
    C124   O194      0.67450      .   S
    C39    O195      0.54508      .   S
    C109   O195      0.54508      .   S
    C110   O196      0.73856      .   S
    C111   O196      0.73856      .   S
    C110   O197      0.70375      .   S
    C109   O197      0.70375      .   S
    C110   O198      0.70448      .   S
    C108   O198      0.70448      .   S
    C115   O199      0.67441      .   S
    C130   O199      0.67441      .   S
    C111   O200      0.70287      .   S
    C112   O200      0.70287      .   S
    C120   O201      0.73864      .   S
    C118   O201      0.73864      .   S
    C120   O202      0.70268      .   S
    C122   O202      0.70268      .   S
    C109   O203      0.69465      .   S
    C106   O203      0.69465      .   S
    C141   O204      0.63653      .   S
    C104   O204      0.63653  1_565   S
    C141   O205      1.04465      .   S
    C2     O205      1.04465      .   S
    C3     O206      1.04590      .   S
    C140   O206      1.04590      .   S
    C3     O207      1.03899      .   S
    C146   O207      1.03899      .   S
    C108   O208      0.54523      .   S
    C38    O208      0.54523      .   S
    C108   O209      0.69552      .   S
    C107   O209      0.69552      .   S
    C118   O210      0.70179      .   S
    C117   O210      0.70179      .   S
    C106   O211      0.70050      .   S
    C105   O211      0.70050      .   S
    C106   O212      0.54376      .   S
    C36    O212      0.54376      .   S
    C114   O213      0.74994      .   S
    C125   O213      0.74994      .   S
    C114   O214      0.70073      .   S
    C113   O214      0.70073      .   S
    C107   O215      0.70100      .   S
    C105   O215      0.70100      .   S
    C107   O216      0.54456      .   S
    C37    O216      0.54456      .   S
    C105   O217      0.74928      .   S
    C104   O217      0.74928      .   S
    C125   O218      0.63776      .   S
    C145   O218      0.63776      .   S
    C104   O219      0.63845      .   S
    C140   O219      0.63845  1_545   S
    C130   O220      1.02734  1_655   S
    C2     O220      1.02734      .   S
    C130   O221      0.67398      .   S
    C116   O221      0.67398      .   S
    C117   O222      0.69350      .   S
    C116   O222      0.69350      .   S
    C117   O223      0.54405      .   S
    C44    O223      0.54405      .   S
    C2     O224      1.03689      .   S
    C145   O224      1.03689      .   S
    C2     O225      1.04056      .   S
    C147   O225      1.04056      .   S
    C116   O226      0.54480      .   S
    C43    O226      0.54480      .   S
    C124   O227      0.69412      .   S
    C122   O227      0.69412      .   S
    C124   O228      0.54483      .   S
    C49    O228      0.54483      .   S
    C122   O229      0.54447      .   S
    C47    O229      0.54447      .   S
    C112   O230      0.69550      .   S
    C113   O230      0.69550      .   S
    C112   O231      0.54674      .   S
    C40    O231      0.54674      .   S
    C113   O232      0.54424      .   S
    C41    O232      0.54424      .   S
    C57    O233      0.63785      .   S
    C139   O233      0.63785      .   S
    C57    O234      0.63740      .   S
    C138   O234      0.63740      .   S
    C139   O235      1.04056      .   S
    C0     O235      1.04056      .   S
    C138   O236      1.03900      .   S
    C1     O236      1.03900      .   S
    C146   O237      0.63741      .   S
    C95    O237      0.63741      .   S
    C147   O238      0.63784      .   S
    C95    O238      0.63784      .   S
    C17    O239      0.54423      .   S
    C75    O239      0.54423      .   S
    C16    O240      0.54522      .   S
    C74    O240      0.54522      .   S
    C95    O241      0.74988      .   S
    C96    O241      0.74988      .   S
    C23    O242      0.54431      .   S
    C84    O242      0.54431      .   S
    C75    O243      0.69555      .   S
    C74    O243      0.69555      .   S
    C75    O244      0.70073      .   S
    C76    O244      0.70073      .   S
    C74    O245      0.70426      .   S
    C73    O245      0.70426      .   S
    C25    O246      0.54483      .   S
    C86    O246      0.54483      .   S
    C137   O247      1.03694      .   S
    C0     O247      1.03694      .   S
    C137   O248      0.63783      .   S
    C87    O248      0.63783      .   S
    C19    O249      0.54480      .   S
    C78    O249      0.54480      .   S
    C84    O250      0.69419      .   S
    C86    O250      0.69419      .   S
    C84    O251      0.70277      .   S
    C82    O251      0.70277      .   S
    C132   O252      0.63844  1_565   S
    C66    O252      0.63844      .   S
    C132   O253      1.04591      .   S
    C1     O253      1.04591      .   S
    C20    O254      0.54404      .   S
    C79    O254      0.54404      .   S
    C86    O255      0.67449      .   S
    C129   O255      0.67449      .   S
    C78    O256      0.69348      .   S
    C79    O256      0.69348      .   S
    C78    O257      0.67398      .   S
    C128   O257      0.67398      .   S
    C0     O258      1.02733      .   S
    C128   O258      1.02733  1_455   S
    C0     O259      1.04465      .   S
    C133   O259      1.04465      .   S
    C0     O260      1.03343      .   S
    C134   O260      1.03343      .   S
    C79    O261      0.70182      .   S
    C80    O261      0.70182      .   S
    C128   O262      0.67442      .   S
    C77    O262      0.67442      .   S
    C66    O263      0.74930      .   S
    C67    O263      0.74930      .   S
    C66    O264      0.63652  1_545   S
    C133   O264      0.63652      .   S
    C87    O265      0.74994      .   S
    C76    O265      0.74994      .   S
    C87    O266      0.63725      .   S
    C136   O266      0.63725      .   S
    C13    O267      0.54456      .   S
    C69    O267      0.54456      .   S
    C12    O268      0.54376      .   S
    C68    O268      0.54376      .   S
    C67    O269      0.70099      .   S
    C69    O269      0.70099      .   S
    C67    O270      0.70049      .   S
    C68    O270      0.70049      .   S
    C69    O271      0.69553      .   S
    C70    O271      0.69553      .   S
    C76    O272      0.70085      .   S
    C88    O272      0.70085      .   S
    C68    O273      0.69464      .   S
    C71    O273      0.69464      .   S
    C14    O274      0.54523      .   S
    C70    O274      0.54523      .   S
    C80    O275      0.73864      .   S
    C82    O275      0.73864      .   S
    C80    O276      0.70121      .   S
    C81    O276      0.70121      .   S
    C70    O277      0.70443      .   S
    C72    O277      0.70443      .   S
    C1     O278      1.03163      .   S
    C129   O278      1.03163      .   S
    C1     O279      1.04338      .   S
    C136   O279      1.04338      .   S
    C1     O280      1.02237      .   S
    C135   O280      1.02237      .   S
    C71    O281      0.70377      .   S
    C72    O281      0.70377      .   S
    C71    O282      0.54507      .   S
    C15    O282      0.54507      .   S
    C82    O283      0.70197      .   S
    C83    O283      0.70197      .   S
    C73    O284      0.73858      .   S
    C72    O284      0.73858      .   S
    C73    O285      0.70399      .   S
    C89    O285      0.70399      .   S
    C77    O286      0.54409      .   S
    C18    O286      0.54409      .   S
    C77    O287      0.69319      .   S
    C81    O287      0.69319      .   S
    C129   O288      0.67412      .   S
    C85    O288      0.67412      .   S
    C81    O289      0.54359      .   S
    C21    O289      0.54359      .   S
    C85    O290      0.69365      .   S
    C83    O290      0.69365      .   S
    C85    O291      0.54487      .   S
    C24    O291      0.54487      .   S
    C83    O292      0.54436      .   S
    C22    O292      0.54436      .   S
    C88    O293      0.69502      .   S
    C89    O293      0.69502      .   S
    C88    O294      0.54446      .   S
    C26    O294      0.54446      .   S
    C89    O295      0.54483      .   S
    C27    O295      0.54483      .   S
    C33    O296      0.54469      .   S
    C99    O296      0.54469      .   S
    C96    O297      0.70159      .   S
    C99    O297      0.70159      .   S
    C96    O298      0.70122      .   S
    C100   O298      0.70122      .   S
    C34    O299      0.54396      .   S
    C100   O299      0.54396      .   S
    C99    O300      0.69527      .   S
    C97    O300      0.69527      .   S
    C100   O301      0.69510      .   S
    C101   O301      0.69510      .   S
    C134   O302      0.63654      .   S
    C52    O302      0.63654      .   S
    C135   O303      0.63837      .   S
    C52    O303      0.63837      .   S
    C52    O304      0.74935      .   S
    C53    O304      0.74935      .   S
    C97    O305      0.54513      .   S
    C31    O305      0.54513      .   S
    C97    O306      0.70429      .   S
    C102   O306      0.70429      .   S
    C101   O307      0.70418      .   S
    C102   O307      0.70418      .   S
    C101   O308      0.54502      .   S
    C35    O308      0.54502      .   S
    C102   O309      0.73891      .   S
    C103   O309      0.73891      .   S
    C4     O310      0.54456      .   S
    C54    O310      0.54456      .   S
    C53    O311      0.70093      .   S
    C54    O311      0.70093      .   S
    C53    O312      0.70087      .   S
    C60    O312      0.70087      .   S
    C8     O313      0.54487      .   S
    C60    O313      0.54487      .   S
    C103   O314      0.70406      .   S
    C94    O314      0.70406      .   S
    C103   O315      0.70403      .   S
    C93    O315      0.70403      .   S
    C30    O316      0.54521      .   S
    C94    O316      0.54521      .   S
    C29    O317      0.54515      .   S
    C93    O317      0.54515      .   S
    C0     O318      1.41272      .   S
    C1     O318      1.41272      .   S
    C2     O319      1.41272      .   S
    C3     O319      1.41272      .   S
