# CIF file generated by openbabel 2.4.90, see http://openbabel.sf.net
data_I
_chemical_name_common ''
_cell_length_a 14.004
_cell_length_b 15.377
_cell_length_c 15.348
_cell_angle_alpha 88.196
_cell_angle_beta 85.279
_cell_angle_gamma 85.566
_space_group_name_H-M_alt 'P 1'
_space_group_name_Hall 'P 1'
loop_
    _symmetry_equiv_pos_as_xyz
    x,y,z
loop_
    _atom_site_label
    _atom_site_type_symbol
    _atom_site_fract_x
    _atom_site_fract_y
    _atom_site_fract_z
    _atom_site_occupancy
    N0      N    0.78842   0.34487   0.61156   1.000
    N1      N    0.78947   0.84561   0.10607   1.000
    N2      N    0.28848   0.84604   0.61277   1.000
    N3      N    0.71154   0.15397   0.38724   1.000
    N4      N    0.21160   0.65514   0.38843   1.000
    N5      N    0.21054   0.15441   0.89393   1.000
    Zr6     Zr   0.21049   0.15532   0.39273   1.000
    O7      O    0.23254   0.29526   0.38786   1.000
    O8      O    0.37958   0.15315   0.38909   1.000
    O9      O    0.23466   0.01171   0.39250   1.000
    O10     O    0.23243   0.15502   0.53295   1.000
    O11     O    0.23379   0.15140   0.24997   1.000
    O12     O    0.18732   0.29856   0.39540   1.000
    O13     O    0.04213   0.15648   0.39262   1.000
    O14     O    0.18945   0.01537   0.39164   1.000
    O15     O    0.18704   0.15464   0.53653   1.000
    O16     O    0.18868   0.15920   0.25321   1.000
    Zr17    Zr   0.78952   0.84469   0.60728   1.000
    O18     O    0.76536   0.98830   0.60750   1.000
    O19     O    0.76747   0.70475   0.61214   1.000
    O20     O    0.76759   0.84499   0.46706   1.000
    O21     O    0.76623   0.84861   0.75003   1.000
    O22     O    0.62044   0.84686   0.61092   1.000
    O23     O    0.81057   0.98464   0.60837   1.000
    O24     O    0.81270   0.70146   0.60460   1.000
    O25     O    0.81298   0.84537   0.46348   1.000
    O26     O    0.81134   0.84081   0.74680   1.000
    O27     O    0.95788   0.84353   0.60739   1.000
loop_
    _geom_bond_atom_site_label_1
    _geom_bond_atom_site_label_2
    _geom_bond_distance
    _geom_bond_site_symmetry_2
    _ccdc_geom_bond_type
    Zr6    O7        2.19550      .   S
    N4     O7        5.51924      .   S
    Zr6    O8        2.36163      .   S
    N3     O8        4.64747      .   S
    Zr6    O9        2.20809      .   S
    N4     O9        5.51994  1_565   S
    Zr6    O10       2.19854      .   S
    N5     O10       5.52341      .   S
    Zr6    O11       2.19048      .   S
    N5     O11       5.49943  1_556   S
    Zr6    O12       2.20253      .   S
    N4     O12       5.51710      .   S
    Zr6    O13       2.35653      .   S
    N3     O13       4.64035  1_655   S
    Zr6    O14       2.19532      .   S
    N4     O14       5.52546  1_565   S
    Zr6    O15       2.20430      .   S
    N5     O15       5.52210      .   S
    Zr6    O16       2.18607      .   S
    N5     O16       5.50001  1_556   S
    Zr17   O18       2.20809      .   S
    N0     O18       5.51993  1_545   S
    Zr17   O19       2.19551      .   S
    N0     O19       5.51925      .   S
    Zr17   O20       2.19856      .   S
    N1     O20       5.52346      .   S
    Zr17   O21       2.19047      .   S
    N1     O21       5.49938  1_554   S
    Zr17   O22       2.36164      .   S
    N2     O22       4.64748      .   S
    Zr17   O23       2.19531      .   S
    N0     O23       5.52544  1_545   S
    Zr17   O24       2.20254      .   S
    N0     O24       5.51711      .   S
    Zr17   O25       2.20431      .   S
    N1     O25       5.52216      .   S
    Zr17   O26       2.18605      .   S
    N1     O26       5.49996  1_554   S
    Zr17   O27       2.35653      .   S
    N2     O27       4.64034  1_455   S
