# CIF file generated by openbabel 2.4.90, see http://openbabel.sf.net
data_I
_chemical_name_common ''
_cell_length_a 14.004
_cell_length_b 15.377
_cell_length_c 15.348
_cell_angle_alpha 88.196
_cell_angle_beta 85.279
_cell_angle_gamma 85.566
_space_group_name_H-M_alt 'P 1'
_space_group_name_Hall 'P 1'
loop_
    _symmetry_equiv_pos_as_xyz
    x,y,z
loop_
    _atom_site_label
    _atom_site_type_symbol
    _atom_site_fract_x
    _atom_site_fract_y
    _atom_site_fract_z
    _atom_site_occupancy
    Zr0     Zr   0.89103   0.83737   0.59988   1.000
    Zr1     Zr   0.68801   0.85201   0.61468   1.000
    Zr2     Zr   0.10898   0.16264   0.40013   1.000
    Zr3     Zr   0.31200   0.14800   0.38533   1.000
    O4      O    0.78952   0.84469   0.60728   1.000
    O5      O    0.21049   0.15532   0.39273   1.000
    N6      N    0.78842   0.34487   0.61156   1.000
    O7      O    0.74119   0.13191   0.60772   1.000
    O8      O    0.83162   0.12459   0.60946   1.000
    O9      O    0.74543   0.56481   0.61701   1.000
    O10     O    0.83588   0.55822   0.60192   1.000
    N11     N    0.78947   0.84561   0.10607   1.000
    O12     O    0.83315   0.83694   0.88631   1.000
    O13     O    0.74293   0.85254   0.89279   1.000
    O14     O    0.74565   0.84529   0.32685   1.000
    O15     O    0.83643   0.84604   0.31967   1.000
    N16     N    0.28848   0.84604   0.61277   1.000
    O17     O    0.12624   0.84237   0.60750   1.000
    O18     O    0.45135   0.84903   0.61455   1.000
    N19     N    0.71154   0.15397   0.38724   1.000
    O20     O    0.87377   0.15764   0.39251   1.000
    O21     O    0.54867   0.15098   0.38546   1.000
    N22     N    0.21160   0.65514   0.38843   1.000
    O23     O    0.25882   0.86810   0.39228   1.000
    O24     O    0.16840   0.87542   0.39054   1.000
    O25     O    0.25459   0.43520   0.38299   1.000
    O26     O    0.16414   0.44179   0.39807   1.000
    N27     N    0.21054   0.15441   0.89393   1.000
    O28     O    0.16686   0.16308   0.11370   1.000
    O29     O    0.25708   0.14748   0.10722   1.000
    O30     O    0.25436   0.15473   0.67316   1.000
    O31     O    0.16358   0.15397   0.68033   1.000
loop_
    _geom_bond_atom_site_label_1
    _geom_bond_atom_site_label_2
    _geom_bond_distance
    _geom_bond_site_symmetry_2
    _ccdc_geom_bond_type
    Zr0    O4        1.41272      .   S
    Zr1    O4        1.41272      .   S
    Zr2    O5        1.41272      .   S
    Zr3    O5        1.41272      .   S
    N6     O7        3.39380      .   S
    Zr1    O7        4.42077  1_565   S
    N6     O8        3.39517      .   S
    Zr0    O8        4.43539  1_565   S
    N6     O9        3.39152      .   S
    Zr1    O9        4.42690      .   S
    N6     O10       3.39369      .   S
    Zr0    O10       4.41848      .   S
    N11    O12       3.38297  1_554   S
    Zr0    O12       4.40404      .   S
    N11    O13       3.38678  1_554   S
    Zr1    O13       4.39935      .   S
    N11    O14       3.39341      .   S
    Zr1    O14       4.42797      .   S
    N11    O15       3.39662      .   S
    Zr0    O15       4.42573      .   S
    N16    O17       2.28514      .   S
    Zr0    O17       3.31246  1_655   S
    N16    O18       2.28729      .   S
    Zr1    O18       3.31830      .   S
    N19    O20       2.28514      .   S
    Zr2    O20       3.31247  1_455   S
    N19    O21       2.28729      .   S
    Zr3    O21       3.31829      .   S
    N22    O23       3.39382      .   S
    Zr3    O23       4.42077  1_545   S
    N22    O24       3.39518      .   S
    Zr2    O24       4.43541  1_545   S
    N22    O25       3.39151      .   S
    Zr3    O25       4.42689      .   S
    N22    O26       3.39369      .   S
    Zr2    O26       4.41847      .   S
    N27    O28       3.38300  1_556   S
    Zr2    O28       4.40407      .   S
    N27    O29       3.38682  1_556   S
    Zr3    O29       4.39940      .   S
    N27    O30       3.39338      .   S
    Zr3    O30       4.42794      .   S
    N27    O31       3.39658      .   S
    Zr2    O31       4.42569      .   S
