# CIF file generated by openbabel 2.4.90, see http://openbabel.sf.net
data_I
_chemical_name_common ''
_cell_length_a 13.716
_cell_length_b 14.213
_cell_length_c 15.984
_cell_angle_alpha 90
_cell_angle_beta 90.002
_cell_angle_gamma 90.003
_space_group_name_H-M_alt 'P 1'
_space_group_name_Hall 'P 1'
loop_
    _symmetry_equiv_pos_as_xyz
    x,y,z
loop_
    _atom_site_label
    _atom_site_type_symbol
    _atom_site_fract_x
    _atom_site_fract_y
    _atom_site_fract_z
    _atom_site_occupancy
    V0      V    0.96908   0.76398   0.99910   1.000
    V1      V    0.28089   0.23605   0.49910   1.000
    V2      V    0.78090   0.23605   0.49910   1.000
    V3      V    0.03075   0.26363   0.49869   1.000
    V4      V    0.53075   0.26363   0.49869   1.000
    V5      V    0.21922   0.73640   0.99869   1.000
    V6      V    0.71923   0.73641   0.99869   1.000
    V7      V    0.46908   0.76398   0.99910   1.000
