# CIF file generated by openbabel 2.4.90, see http://openbabel.sf.net
data_I
_chemical_name_common ''
_cell_length_a 13.716
_cell_length_b 14.213
_cell_length_c 15.984
_cell_angle_alpha 90
_cell_angle_beta 90.002
_cell_angle_gamma 90.003
_space_group_name_H-M_alt 'P 1'
_space_group_name_Hall 'P 1'
loop_
    _symmetry_equiv_pos_as_xyz
    x,y,z
loop_
    _atom_site_label
    _atom_site_type_symbol
    _atom_site_fract_x
    _atom_site_fract_y
    _atom_site_fract_z
    _atom_site_occupancy
    Zr0     Zr   0.46908   0.76398   0.99910   1.000
    Zr1     Zr   0.96908   0.76398   0.99910   1.000
    Zr2     Zr   0.28089   0.23605   0.49910   1.000
    Zr3     Zr   0.78090   0.23605   0.49910   1.000
    Zr4     Zr   0.03075   0.26363   0.49869   1.000
    Zr5     Zr   0.53075   0.26363   0.49869   1.000
    Zr6     Zr   0.21922   0.73640   0.99869   1.000
    Zr7     Zr   0.71923   0.73641   0.99869   1.000
    N8      N    0.87482   0.50328   0.74647   1.000
    O9      O    0.81186   0.60028   0.85024   1.000
    O10     O    0.93784   0.40476   0.64369   1.000
    O11     O    0.91560   0.61034   0.85034   1.000
    O12     O    0.83416   0.39388   0.64452   1.000
    N13     N    0.12484   0.00377   0.75176   1.000
    O14     O    0.16565   0.89471   0.85389   1.000
    O15     O    0.06182   0.90476   0.85400   1.000
    O16     O    0.18783   0.10002   0.64746   1.000
    O17     O    0.08407   0.11092   0.64808   1.000
    N18     N    0.87516   0.49676   0.24647   1.000
    O19     O    0.81214   0.59528   0.14369   1.000
    O20     O    0.91583   0.60615   0.14451   1.000
    O21     O    0.93811   0.39976   0.35023   1.000
    O22     O    0.83437   0.38969   0.35033   1.000
    N23     N    0.37515   0.49676   0.24647   1.000
    O24     O    0.33437   0.38969   0.35034   1.000
    O25     O    0.43811   0.39975   0.35023   1.000
    O26     O    0.31213   0.59528   0.14369   1.000
    O27     O    0.41582   0.60615   0.14452   1.000
    N28     N    0.12512   0.99628   0.25175   1.000
    O29     O    0.08430   0.10533   0.35388   1.000
    O30     O    0.16589   0.88912   0.14808   1.000
    O31     O    0.18814   0.09527   0.35399   1.000
    O32     O    0.06214   0.90002   0.14745   1.000
    N33     N    0.37481   0.50328   0.74643   1.000
    O34     O    0.31185   0.60028   0.85022   1.000
    O35     O    0.43784   0.40476   0.64367   1.000
    O36     O    0.33415   0.39388   0.64450   1.000
    O37     O    0.41559   0.61034   0.85032   1.000
    N38     N    0.62513   0.99628   0.25173   1.000
    O39     O    0.58431   0.10533   0.35387   1.000
    O40     O    0.56215   0.90002   0.14745   1.000
    O41     O    0.68815   0.09528   0.35399   1.000
    O42     O    0.66590   0.88912   0.14807   1.000
    N43     N    0.85834   0.80607   0.00013   1.000
    O44     O    0.88602   0.79554   0.99987   1.000
    O45     O    0.82356   0.78865   0.99977   1.000
    N46     N    0.62484   0.00376   0.75171   1.000
    O47     O    0.58408   0.11091   0.64805   1.000
    O48     O    0.66566   0.89470   0.85387   1.000
    O49     O    0.68783   0.10001   0.64744   1.000
    O50     O    0.56182   0.90476   0.85398   1.000
    N51     N    0.14168   0.30516   0.49722   1.000
    O52     O    0.17649   0.28788   0.49769   1.000
    O53     O    0.11395   0.29478   0.49759   1.000
    N54     N    0.39165   0.19395   0.50014   1.000
    O55     O    0.36396   0.20447   0.49988   1.000
    O56     O    0.42642   0.21137   0.49978   1.000
    N57     N    0.89166   0.19395   0.50010   1.000
    O58     O    0.92643   0.21137   0.49975   1.000
    O59     O    0.86397   0.20447   0.49985   1.000
    N60     N    0.60830   0.69487   0.99723   1.000
    O61     O    0.63603   0.70525   0.99760   1.000
    O62     O    0.57349   0.71214   0.99770   1.000
    N63     N    0.64169   0.30516   0.49720   1.000
    O64     O    0.67649   0.28788   0.49768   1.000
    O65     O    0.61396   0.29478   0.49757   1.000
    N66     N    0.35833   0.80607   0.00013   1.000
    O67     O    0.32355   0.78865   0.99977   1.000
    O68     O    0.38601   0.79554   0.99987   1.000
    N69     N    0.10829   0.69487   0.99723   1.000
    O70     O    0.13602   0.70525   0.99760   1.000
    O71     O    0.07349   0.71215   0.99770   1.000
loop_
    _geom_bond_atom_site_label_1
    _geom_bond_atom_site_label_2
    _geom_bond_distance
    _geom_bond_site_symmetry_2
    _ccdc_geom_bond_type
    N8     O9        2.32325      .   S
    Zr7    O9        3.31489      .   S
    N8     O10       2.32535      .   S
    Zr4    O10       3.31959  1_455   S
    N8     O11       2.32046      .   S
    Zr1    O11       3.31059      .   S
    N8     O12       2.32034      .   S
    Zr3    O12       3.31190      .   S
    N13    O14       2.31972  1_545   S
    Zr6    O14       3.31043      .   S
    N13    O15       2.32340  1_545   S
    Zr1    O15       3.31668  1_655   S
    N13    O16       2.32313      .   S
    Zr2    O16       3.31528      .   S
    N13    O17       2.31909      .   S
    Zr4    O17       3.30877      .   S
    N18    O19       2.32524      .   S
    Zr7    O19       3.31946  1_556   S
    N18    O20       2.32042      .   S
    Zr1    O20       3.31171  1_556   S
    N18    O21       2.32325      .   S
    Zr4    O21       3.31492  1_455   S
    N18    O22       2.32056      .   S
    Zr3    O22       3.31073      .   S
    N23    O24       2.32051      .   S
    Zr2    O24       3.31067      .   S
    N23    O25       2.32321      .   S
    Zr5    O25       3.31493      .   S
    N23    O26       2.32529      .   S
    Zr6    O26       3.31951  1_556   S
    N23    O27       2.32035      .   S
    Zr0    O27       3.31187  1_556   S
    N28    O29       2.31974  1_565   S
    Zr4    O29       3.31049      .   S
    N28    O30       2.31913      .   S
    Zr6    O30       3.30877  1_556   S
    N28    O31       2.32331  1_565   S
    Zr2    O31       3.31672      .   S
    N28    O32       2.32307      .   S
    Zr1    O32       3.31517  1_656   S
    N33    O34       2.32348      .   S
    Zr6    O34       3.31512      .   S
    N33    O35       2.32513      .   S
    Zr5    O35       3.31943      .   S
    N33    O36       2.32011      .   S
    Zr2    O36       3.31167      .   S
    N33    O37       2.32068      .   S
    Zr0    O37       3.31082      .   S
    N38    O39       2.31979  1_565   S
    Zr5    O39       3.31054      .   S
    N38    O40       2.32302      .   S
    Zr0    O40       3.31517  1_556   S
    N38    O41       2.32338  1_565   S
    Zr3    O41       3.31677      .   S
    N38    O42       2.31907      .   S
    Zr7    O42       3.30871  1_556   S
    N43    O44       0.40818  1_554   S
    Zr1    O44       1.22454      .   S
    N43    O45       0.53741  1_554   S
    Zr7    O45       1.61224      .   S
    N46    O47       2.31890      .   S
    Zr5    O47       3.30841      .   S
    N46    O48       2.31999  1_545   S
    Zr7    O48       3.31069      .   S
    N46    O49       2.32286      .   S
    Zr3    O49       3.31501      .   S
    N46    O50       2.32368  1_545   S
    Zr0    O50       3.31701      .   S
    N51    O52       0.53688      .   S
    Zr2    O52       1.61065      .   S
    N51    O53       0.40805      .   S
    Zr4    O53       1.22416      .   S
    N54    O55       0.40820      .   S
    Zr2    O55       1.22459      .   S
    N54    O56       0.53744      .   S
    Zr5    O56       1.61233      .   S
    N57    O58       0.53739      .   S
    Zr4    O58       1.61217  1_455   S
    N57    O59       0.40819      .   S
    Zr3    O59       1.22458      .   S
    N60    O61       0.40804      .   S
    Zr7    O61       1.22412      .   S
    N60    O62       0.53691      .   S
    Zr0    O62       1.61073      .   S
    N63    O64       0.53689      .   S
    Zr3    O64       1.61067      .   S
    N63    O65       0.40806      .   S
    Zr5    O65       1.22417      .   S
    N66    O67       0.53742  1_554   S
    Zr6    O67       1.61225      .   S
    N66    O68       0.40818  1_554   S
    Zr0    O68       1.22454      .   S
    N69    O70       0.40804      .   S
    Zr6    O70       1.22412      .   S
    N69    O71       0.53686      .   S
    Zr1    O71       1.61057  1_655   S
