# CIF file generated by openbabel 2.4.90, see http://openbabel.sf.net
data_I
_chemical_name_common ''
_cell_length_a 14.614
_cell_length_b 18.285
_cell_length_c 18.361
_cell_angle_alpha 112.518
_cell_angle_beta 105.626
_cell_angle_gamma 105.429
_space_group_name_H-M_alt 'P 1'
_space_group_name_Hall 'P 1'
loop_
    _symmetry_equiv_pos_as_xyz
    x,y,z
loop_
    _atom_site_label
    _atom_site_type_symbol
    _atom_site_fract_x
    _atom_site_fract_y
    _atom_site_fract_z
    _atom_site_occupancy
    H0      H    0.19127   0.95750   0.47431   1.000
    H1      H    0.43919   0.94056   0.39139   1.000
    H2      H    0.33291   0.78057   0.30127   1.000
    H3      H    0.44678   0.07510   0.40341   1.000
    H4      H    0.33467   0.07493   0.60041   1.000
    H5      H    0.42090   0.23477   0.67580   1.000
    H6      H    0.93612   0.71879   0.17911   1.000
    H7      H    0.84339   0.73589   0.05440   1.000
    H8      H    0.87081   0.67367   0.91793   1.000
    H9      H    0.99269   0.59693   0.91372   1.000
    H10     H    0.08105   0.58978   0.04501   1.000
    H11     H    0.71583   0.52362   0.48352   1.000
    H12     H    0.04686   0.60749   0.54740   1.000
    H13     H    0.02910   0.69620   0.47432   1.000
    H14     H    0.04327   0.59757   0.67129   1.000
    H15     H    0.73437   0.39776   0.47817   1.000
    H16     H    0.74661   0.32364   0.56506   1.000
    H17     H    0.75428   0.81672   0.53243   1.000
    H18     H    0.78899   0.93972   0.67406   1.000
    H19     H    0.95602   0.07481   0.74884   1.000
    H20     H    0.08244   0.07955   0.67730   1.000
    H21     H    0.03630   0.94960   0.53853   1.000
    H22     H    0.23234   0.51755   0.03970   1.000
    H23     H    0.49928   0.45287   0.06147   1.000
    H24     H    0.55359   0.52457   0.22122   1.000
    H25     H    0.37372   0.33041   0.92948   1.000
    H26     H    0.25655   0.52376   0.92035   1.000
    H27     H    0.18365   0.43827   0.76136   1.000
    H28     H    0.21845   0.46438   0.28069   1.000
    H29     H    0.11004   0.32338   0.26564   1.000
    H30     H    0.20088   0.24918   0.32983   1.000
    H31     H    0.39920   0.32076   0.40614   1.000
    H32     H    0.49334   0.45852   0.41119   1.000
    H33     H    0.80870   0.04254   0.52567   1.000
    H34     H    0.56078   0.05948   0.60858   1.000
    H35     H    0.66706   0.21948   0.69870   1.000
    H36     H    0.55319   0.92495   0.59656   1.000
    H37     H    0.66529   0.92512   0.39956   1.000
    H38     H    0.57907   0.76528   0.32417   1.000
    H39     H    0.06385   0.28126   0.82087   1.000
    H40     H    0.15659   0.26416   0.94559   1.000
    H41     H    0.12916   0.32638   0.08205   1.000
    H42     H    0.00728   0.40311   0.08626   1.000
    H43     H    0.91892   0.41026   0.95496   1.000
    H44     H    0.28415   0.47643   0.51646   1.000
    H45     H    0.95312   0.39257   0.45258   1.000
    H46     H    0.97087   0.30385   0.52565   1.000
    H47     H    0.95671   0.40247   0.32868   1.000
    H48     H    0.26561   0.60229   0.52180   1.000
    H49     H    0.25336   0.67641   0.43491   1.000
    H50     H    0.24569   0.18333   0.46754   1.000
    H51     H    0.21098   0.06032   0.32591   1.000
    H52     H    0.04395   0.92524   0.25113   1.000
    H53     H    0.91752   0.92050   0.32267   1.000
    H54     H    0.96366   0.05045   0.46143   1.000
    H55     H    0.76763   0.48250   0.96028   1.000
    H56     H    0.50070   0.54719   0.93850   1.000
    H57     H    0.44639   0.47549   0.77876   1.000
    H58     H    0.62624   0.66964   0.07050   1.000
    H59     H    0.74342   0.47629   0.07963   1.000
    H60     H    0.81631   0.56178   0.23862   1.000
    H61     H    0.78153   0.53567   0.71928   1.000
    H62     H    0.88993   0.67667   0.73433   1.000
    H63     H    0.79910   0.75087   0.67015   1.000
    H64     H    0.60077   0.67929   0.59383   1.000
    H65     H    0.50664   0.54152   0.58878   1.000
    C66     C    0.17076   0.83216   0.38314   1.000
    C67     C    0.22683   0.92159   0.43779   1.000
    C68     C    0.32447   0.96379   0.44119   1.000
    C69     C    0.36325   0.91207   0.39081   1.000
    C70     C    0.30410   0.82265   0.33995   1.000
    C71     C    0.48168   0.19740   0.50870   1.000
    C72     C    0.43783   0.10664   0.46318   1.000
    C73     C    0.38089   0.05957   0.49314   1.000
    C74     C    0.37591   0.10655   0.57194   1.000
    C75     C    0.42404   0.19694   0.61485   1.000
    C76     C    0.94713   0.69433   0.11930   1.000
    C77     C    0.89565   0.70320   0.04951   1.000
    C78     C    0.91104   0.66841   0.97387   1.000
    C79     C    0.97789   0.62636   0.97086   1.000
    C80     C    0.02726   0.62109   0.04386   1.000
    C81     C    0.78528   0.61389   0.44621   1.000
    C82     C    0.78761   0.56007   0.48298   1.000
    C83     C    0.88240   0.55739   0.52214   1.000
    C84     C    0.97116   0.60756   0.51924   1.000
    C85     C    0.96197   0.65757   0.47883   1.000
    C86     C    0.97383   0.49255   0.69117   1.000
    C87     C    0.97492   0.53738   0.64446   1.000
    C88     C    0.88775   0.50625   0.56773   1.000
    C89     C    0.80435   0.42708   0.53777   1.000
    C90     C    0.81026   0.38489   0.58664   1.000
    C91     C    0.82640   0.87588   0.56795   1.000
    C92     C    0.84630   0.94470   0.64655   1.000
    C93     C    0.93907   0.01958   0.68770   1.000
    C94     C    0.00912   0.02283   0.64909   1.000
    C95     C    0.98379   0.95075   0.57083   1.000
    C96     C    0.33834   0.55368   0.16620   1.000
    C97     C    0.30439   0.51761   0.07667   1.000
    C98     C    0.36023   0.47860   0.03589   1.000
    C99     C    0.45151   0.48087   0.08889   1.000
    C100    C    0.48220   0.52052   0.17819   1.000
    C101    C    0.28549   0.31168   0.80547   1.000
    C102    C    0.33214   0.35753   0.89595   1.000
    C103    C    0.32078   0.43386   0.94033   1.000
    C104    C    0.26754   0.46437   0.89102   1.000
    C105    C    0.22559   0.41629   0.80108   1.000
    C106    C    0.25451   0.42906   0.30598   1.000
    C107    C    0.19492   0.35083   0.29824   1.000
    C108    C    0.24576   0.30999   0.33410   1.000
    C109    C    0.35452   0.34856   0.37596   1.000
    C110    C    0.40838   0.42640   0.38005   1.000
    C111    C    0.82921   0.16788   0.61683   1.000
    C112    C    0.77313   0.07845   0.56219   1.000
    C113    C    0.67550   0.03626   0.55879   1.000
    C114    C    0.63672   0.08797   0.60916   1.000
    C115    C    0.69586   0.17740   0.66002   1.000
    C116    C    0.51829   0.80265   0.49128   1.000
    C117    C    0.56214   0.89341   0.53680   1.000
    C118    C    0.61908   0.94048   0.50683   1.000
    C119    C    0.62406   0.89350   0.42803   1.000
    C120    C    0.57592   0.80311   0.38512   1.000
    C121    C    0.05284   0.30572   0.88068   1.000
    C122    C    0.10433   0.29685   0.95047   1.000
    C123    C    0.08894   0.33164   0.02611   1.000
    C124    C    0.02208   0.37368   0.02911   1.000
    C125    C    0.97271   0.37896   0.95611   1.000
    C126    C    0.21469   0.38616   0.55376   1.000
    C127    C    0.21237   0.43997   0.51699   1.000
    C128    C    0.11757   0.44266   0.47783   1.000
    C129    C    0.02881   0.39248   0.48072   1.000
    C130    C    0.03800   0.34248   0.52115   1.000
    C131    C    0.02614   0.50750   0.30881   1.000
    C132    C    0.02505   0.46267   0.35552   1.000
    C133    C    0.11223   0.49379   0.43225   1.000
    C134    C    0.19562   0.57296   0.46221   1.000
    C135    C    0.18971   0.61516   0.41333   1.000
    C136    C    0.17356   0.12417   0.43202   1.000
    C137    C    0.15367   0.05534   0.35342   1.000
    C138    C    0.06089   0.98046   0.31228   1.000
    C139    C    0.99084   0.97722   0.35088   1.000
    C140    C    0.01617   0.04930   0.42913   1.000
    C141    C    0.66163   0.44637   0.83378   1.000
    C142    C    0.69558   0.48245   0.92331   1.000
    C143    C    0.63974   0.52146   0.96409   1.000
    C144    C    0.54847   0.51919   0.91109   1.000
    C145    C    0.51778   0.47954   0.82179   1.000
    C146    C    0.71447   0.68837   0.19451   1.000
    C147    C    0.66782   0.64252   0.10402   1.000
    C148    C    0.67919   0.56619   0.05964   1.000
    C149    C    0.73243   0.53568   0.10895   1.000
    C150    C    0.77438   0.58376   0.19889   1.000
    C151    C    0.74547   0.57098   0.69399   1.000
    C152    C    0.80505   0.64922   0.70173   1.000
    C153    C    0.75422   0.69006   0.66588   1.000
    C154    C    0.64545   0.65149   0.62401   1.000
    C155    C    0.59160   0.57364   0.61992   1.000
    N156    N    0.20889   0.78320   0.33476   1.000
    N157    N    0.47328   0.24141   0.58278   1.000
    N158    N    0.01240   0.65421   0.11699   1.000
    N159    N    0.87144   0.66207   0.44413   1.000
    N160    N    0.89174   0.41801   0.66271   1.000
    N161    N    0.89405   0.87840   0.53044   1.000
    N162    N    0.42621   0.55513   0.21639   1.000
    N163    N    0.23188   0.34052   0.75927   1.000
    N164    N    0.35977   0.46647   0.34597   1.000
    N165    N    0.79107   0.21684   0.66522   1.000
    N166    N    0.52668   0.75863   0.41719   1.000
    N167    N    0.98758   0.34583   0.88298   1.000
    N168    N    0.12853   0.33799   0.55586   1.000
    N169    N    0.10824   0.58203   0.33726   1.000
    N170    N    0.10592   0.12165   0.46953   1.000
    N171    N    0.57377   0.44493   0.78359   1.000
    N172    N    0.76809   0.65952   0.24071   1.000
    N173    N    0.64021   0.53357   0.65399   1.000
loop_
    _geom_bond_atom_site_label_1
    _geom_bond_atom_site_label_2
    _geom_bond_distance
    _geom_bond_site_symmetry_2
    _ccdc_geom_bond_type
    C123   C124      1.39457      .   S
    C123   H41       1.09105      .   S
    C123   C122      1.39701  1_554   S
    C124   H42       1.09031      .   S
    C124   C125      1.39335  1_454   S
    C98    C97       1.40181      .   S
    C98    C99       1.40303      .   S
    C98    C103      1.47799  1_554   S
    H22    C97       1.08785      .   S
    C80    H10       1.08894      .   S
    C80    N158      1.34955      .   S
    C80    C79       1.39336  1_454   S
    C77    H7        1.08975      .   S
    C77    C76       1.39251      .   S
    C77    C78       1.39698  1_554   S
    C148   C147      1.40176      .   S
    C148   C149      1.40506      .   S
    C148   C143      1.47798  1_554   S
    H23    C99       1.08849      .   S
    H58    C147      1.08935      .   S
    C97    C96       1.39266      .   S
    H59    C149      1.08937      .   S
    C99    C100      1.39126      .   S
    C147   C146      1.39522      .   S
    C149   C150      1.38986      .   S
    N158   C76       1.34904  1_455   S
    C76    H6        1.09054      .   S
    C96    N162      1.35075      .   S
    C100   N162      1.34409      .   S
    C100   H24       1.09007      .   S
    C146   N172      1.34774      .   S
    C150   H60       1.08815      .   S
    C150   N172      1.34465      .   S
    H52    C138      1.09102      .   S
    H29    C107      1.08976      .   S
    H28    C106      1.09056      .   S
    C107   C106      1.39265      .   S
    C107   C108      1.39685      .   S
    H2     C70       1.09012      .   S
    C106   N164      1.34917      .   S
    C131   N169      1.34781      .   S
    C131   C132      1.39525      .   S
    C138   C139      1.39450  1_455   S
    C138   C137      1.39707  1_565   S
    H53    C139      1.09101      .   S
    H38    C120      1.08834      .   S
    H51    C137      1.08977      .   S
    H47    C132      1.08924  1_655   S
    H30    C108      1.09107      .   S
    C108   C109      1.39459      .   S
    N156   C70       1.34436      .   S
    N156   C66       1.35063      .   S
    N169   C135      1.34456      .   S
    C70    C69       1.39157      .   S
    N164   C110      1.34957      .   S
    C139   C140      1.39363  1_665   S
    C137   C136      1.39258      .   S
    C132   C133      1.40176      .   S
    C109   C110      1.39342      .   S
    C109   H31       1.09043      .   S
    C110   H32       1.08890      .   S
    C66    C67       1.39269      .   S
    C120   N166      1.34525      .   S
    C120   C119      1.39022      .   S
    C69    H1        1.08850      .   S
    C69    C68       1.40307      .   S
    H37    C119      1.08933      .   S
    H3     C72       1.08932      .   S
    C135   H49       1.08810      .   S
    C135   C134      1.38988      .   S
    N166   C116      1.34791      .   S
    C119   C118      1.40517      .   S
    C140   H54       1.08866  1_455   S
    C140   N170      1.34968      .   S
    C136   H50       1.09048      .   S
    C136   N170      1.34919      .   S
    C133   C134      1.40490      .   S
    C133   C128      1.47780      .   S
    C67    C68       1.40156      .   S
    C67    H0        1.08766      .   S
    C68    C73       1.47830  1_565   S
    N159   C81       1.35074      .   S
    N159   C85       1.34421      .   S
    C81    C82       1.39267      .   S
    H45    C129      1.08829  1_655   S
    C134   H48       1.08936      .   S
    C72    C73       1.40143      .   S
    C72    C71       1.39522      .   S
    H13    C85       1.08996  1_455   S
    C128   C129      1.40297      .   S
    C128   C127      1.40186      .   S
    H15    C89       1.08935      .   S
    C85    C84       1.39148      .   S
    C129   C130      1.39150      .   S
    C82    H11       1.08780      .   S
    C82    C83       1.40184      .   S
    C116   C117      1.39520      .   S
    C73    C74       1.40517      .   S
    C118   C117      1.40145      .   S
    C118   C113      1.47831  1_565   S
    C71    N157      1.34790      .   S
    H44    C127      1.08781      .   S
    C127   C126      1.39265      .   S
    C84    C83       1.40298      .   S
    C84    H12       1.08831  1_655   S
    C130   H46       1.08996  1_455   S
    C130   N168      1.34420      .   S
    C83    C88       1.47781      .   S
    H33    C112      1.08765      .   S
    N161   C91       1.34919      .   S
    N161   C95       1.34968      .   S
    H17    C91       1.09048      .   S
    C117   H36       1.08933      .   S
    C89    C88       1.40489      .   S
    C89    C90       1.38988      .   S
    H21    C95       1.08866  1_455   S
    C126   N168      1.35075      .   S
    C113   C112      1.40156      .   S
    C113   C114      1.40306      .   S
    C112   C111      1.39269      .   S
    H16    C90       1.08810      .   S
    C88    C87       1.40175      .   S
    C91    C92       1.39257      .   S
    C95    C94       1.39363  1_665   S
    C74    H4        1.08934      .   S
    C74    C75       1.39023      .   S
    N157   C75       1.34525      .   S
    C90    N160      1.34456      .   S
    H65    C155      1.08890      .   S
    H64    C154      1.09044      .   S
    H34    C114      1.08851      .   S
    C114   C115      1.39156      .   S
    C75    H5        1.08833      .   S
    C111   N165      1.35065      .   S
    C155   C154      1.39342      .   S
    C155   N173      1.34957      .   S
    C154   C153      1.39459      .   S
    C87    H14       1.08924  1_655   S
    C87    C86       1.39525      .   S
    C92    H18       1.08977      .   S
    C92    C93       1.39707  1_565   S
    C94    H20       1.09099      .   S
    C94    C93       1.39452  1_455   S
    N173   C151      1.34916      .   S
    C115   N165      1.34435      .   S
    C115   H35       1.09012      .   S
    N160   C86       1.34781      .   S
    C153   H63       1.09108      .   S
    C153   C152      1.39683      .   S
    C93    H19       1.09100      .   S
    C151   C152      1.39263      .   S
    C151   H61       1.09056      .   S
    C152   H62       1.08977      .   S
    N163   C105      1.34464      .   S
    N163   C101      1.34775      .   S
    H27    C105      1.08815      .   S
    H57    C145      1.09006      .   S
    N171   C145      1.34409      .   S
    N171   C141      1.35075      .   S
    C105   C104      1.38987      .   S
    C101   C102      1.39521      .   S
    H39    C121      1.09055      .   S
    C145   C144      1.39127      .   S
    C141   C142      1.39266      .   S
    C121   N167      1.34904  1_455   S
    C121   C122      1.39248      .   S
    N167   C125      1.34957      .   S
    C104   H26       1.08935      .   S
    C104   C103      1.40508      .   S
    C102   H25       1.08935      .   S
    C102   C103      1.40175      .   S
    C144   H56       1.08847      .   S
    C144   C143      1.40303      .   S
    H9     C79       1.09033      .   S
    H8     C78       1.09104      .   S
    C142   H55       1.08784      .   S
    C142   C143      1.40182      .   S
    H40    C122      1.08975      .   S
    H43    C125      1.08892      .   S
    C79    C78       1.39457      .   S
