# CIF file generated by openbabel 2.4.90, see http://openbabel.sf.net
data_I
_chemical_name_common ''
_cell_length_a 14.614
_cell_length_b 18.285
_cell_length_c 18.361
_cell_angle_alpha 112.518
_cell_angle_beta 105.626
_cell_angle_gamma 105.429
_space_group_name_H-M_alt 'P 1'
_space_group_name_Hall 'P 1'
loop_
    _symmetry_equiv_pos_as_xyz
    x,y,z
loop_
    _atom_site_label
    _atom_site_type_symbol
    _atom_site_fract_x
    _atom_site_fract_y
    _atom_site_fract_z
    _atom_site_occupancy
    Lv0     Lv   0.89463   0.60954   0.48875   1.000
    Lv1     Lv   0.87412   0.45390   0.60056   1.000
    Lv2     Lv   0.28463   0.87934   0.38829   1.000
    Lv3     Lv   0.41955   0.14370   0.54602   1.000
    Lv4     Lv   0.58041   0.85635   0.45395   1.000
    Lv5     Lv   0.71534   0.12070   0.61168   1.000
    Lv6     Lv   0.04584   0.33799   0.96502   1.000
    Lv7     Lv   0.70545   0.62300   0.66054   1.000
    Lv8     Lv   0.91971   0.95932   0.62034   1.000
    Lv9     Lv   0.08026   0.04073   0.37963   1.000
    Lv10    Lv   0.12585   0.54614   0.39942   1.000
    Lv11    Lv   0.10535   0.39051   0.51122   1.000
    Lv12    Lv   0.72471   0.59819   0.14394   1.000
    Lv13    Lv   0.59463   0.48879   0.87946   1.000
    Lv14    Lv   0.40534   0.51127   0.12051   1.000
    Lv15    Lv   0.27526   0.40185   0.85603   1.000
    Lv16    Lv   0.95413   0.66206   0.03496   1.000
    Lv17    Lv   0.29452   0.37705   0.33944   1.000
