# CIF file generated by openbabel 2.4.90, see http://openbabel.sf.net
data_I
_chemical_name_common ''
_cell_length_a 14.614
_cell_length_b 18.285
_cell_length_c 18.361
_cell_angle_alpha 112.518
_cell_angle_beta 105.626
_cell_angle_gamma 105.429
_space_group_name_H-M_alt 'P 1'
_space_group_name_Hall 'P 1'
loop_
    _symmetry_equiv_pos_as_xyz
    x,y,z
loop_
    _atom_site_label
    _atom_site_type_symbol
    _atom_site_fract_x
    _atom_site_fract_y
    _atom_site_fract_z
    _atom_site_occupancy
    C0      C    0.06109   0.78665   0.37303   1.000
    C1      C    0.53964   0.24970   0.47443   1.000
    C2      C    0.68524   0.62343   0.41025   1.000
    C3      C    0.06592   0.52807   0.77757   1.000
    C4      C    0.27425   0.58971   0.21069   1.000
    C5      C    0.29287   0.22601   0.75592   1.000
    C6      C    0.93888   0.21340   0.62695   1.000
    C7      C    0.46033   0.75034   0.52554   1.000
    C8      C    0.31474   0.37662   0.58973   1.000
    C9      C    0.93405   0.47198   0.22241   1.000
    C10     C    0.72572   0.41033   0.78929   1.000
    C11     C    0.70710   0.77404   0.24406   1.000
