# CIF file generated by openbabel 2.4.90, see http://openbabel.sf.net
data_I
_chemical_name_common ''
_cell_length_a 14.614
_cell_length_b 18.285
_cell_length_c 18.361
_cell_angle_alpha 112.518
_cell_angle_beta 105.626
_cell_angle_gamma 105.429
_space_group_name_H-M_alt 'P 1'
_space_group_name_Hall 'P 1'
loop_
    _symmetry_equiv_pos_as_xyz
    x,y,z
loop_
    _atom_site_label
    _atom_site_type_symbol
    _atom_site_fract_x
    _atom_site_fract_y
    _atom_site_fract_z
    _atom_site_occupancy
    Zr0     Zr   0.09232   0.63249   0.23497   1.000
    Zr1     Zr   0.85391   0.76158   0.39133   1.000
    Zr2     Zr   0.46053   0.60617   0.36660   1.000
    Zr3     Zr   0.90765   0.36756   0.76501   1.000
    Zr4     Zr   0.14607   0.23847   0.60865   1.000
    Zr5     Zr   0.53945   0.39388   0.63338   1.000
    N6      N    0.89463   0.60954   0.48875   1.000
    O7      O    0.87865   0.66068   0.45324   1.000
    N8      N    0.87412   0.45390   0.60056   1.000
    O9      O    0.88691   0.42334   0.65721   1.000
    O10     O    0.88199   0.51229   0.55870   1.000
    N11     N    0.28463   0.87934   0.38829   1.000
    O12     O    0.21762   0.79360   0.33658   1.000
    N13     N    0.41955   0.14370   0.54602   1.000
    O14     O    0.46296   0.23067   0.57705   1.000
    O15     O    0.36910   0.04460   0.48688   1.000
    N16     N    0.58041   0.85635   0.45395   1.000
    O17     O    0.53701   0.76937   0.42292   1.000
    N18     N    0.71534   0.12070   0.61168   1.000
    O19     O    0.78235   0.20645   0.66340   1.000
    O20     O    0.66459   0.02153   0.55253   1.000
    N21     N    0.04584   0.33799   0.96502   1.000
    O22     O    0.99673   0.34734   0.89451   1.000
    N23     N    0.70545   0.62300   0.66054   1.000
    O24     O    0.64764   0.54336   0.65211   1.000
    N25     N    0.91971   0.95932   0.62034   1.000
    O26     O    0.89684   0.88966   0.54061   1.000
    N27     N    0.08026   0.04073   0.37963   1.000
    O28     O    0.10313   0.11039   0.45936   1.000
    N29     N    0.12585   0.54614   0.39942   1.000
    O30     O    0.11307   0.57670   0.34276   1.000
    N31     N    0.10535   0.39051   0.51122   1.000
    O32     O    0.11286   0.44885   0.46923   1.000
    O33     O    0.12132   0.33937   0.54674   1.000
    N34     N    0.72471   0.59819   0.14394   1.000
    O35     O    0.76785   0.65437   0.22998   1.000
    N36     N    0.59463   0.48879   0.87946   1.000
    O37     O    0.64336   0.52990   0.97868   1.000
    O38     O    0.57562   0.45410   0.79397   1.000
    N39     N    0.40534   0.51127   0.12051   1.000
    O40     O    0.42436   0.54596   0.20600   1.000
    N41     N    0.27526   0.40185   0.85603   1.000
    O42     O    0.32409   0.44280   0.95517   1.000
    O43     O    0.23212   0.34568   0.77000   1.000
    N44     N    0.95413   0.66206   0.03496   1.000
    O45     O    0.00324   0.65271   0.10547   1.000
    N46     N    0.29452   0.37705   0.33944   1.000
    O47     O    0.35234   0.45669   0.34786   1.000
    C48     C    0.96701   0.22422   0.62917   1.000
    O49     O    0.95876   0.27683   0.67744   1.000
    O50     O    0.88335   0.18995   0.62298   1.000
    O51     O    0.01221   0.21372   0.61028   1.000
    C52     C    0.74301   0.40158   0.77867   1.000
    O53     O    0.68168   0.39685   0.72534   1.000
    O54     O    0.69358   0.43007   0.81208   1.000
    O55     O    0.79893   0.39368   0.78960   1.000
    C56     C    0.29369   0.20450   0.74277   1.000
    O57     O    0.23928   0.20556   0.69276   1.000
    O58     O    0.28795   0.26992   0.78057   1.000
    C59     C    0.55381   0.26347   0.46649   1.000
    O60     O    0.50946   0.22355   0.49264   1.000
    O61     O    0.54912   0.31247   0.51732   1.000
    C62     C    0.34077   0.37448   0.59846   1.000
    O63     O    0.26290   0.38022   0.56997   1.000
    O64     O    0.40455   0.39306   0.60652   1.000
    O65     O    0.28449   0.32622   0.60386   1.000
    C66     C    0.08798   0.53632   0.79925   1.000
    O67     O    0.03275   0.48488   0.79804   1.000
    O68     O    0.01749   0.50921   0.73336   1.000
    C69     C    0.91198   0.46374   0.20073   1.000
    O70     O    0.96721   0.51518   0.20194   1.000
    O71     O    0.98248   0.49084   0.26662   1.000
    C72     C    0.25696   0.59847   0.22131   1.000
    O73     O    0.20104   0.60637   0.21038   1.000
    O74     O    0.31829   0.60319   0.27463   1.000
    O75     O    0.30639   0.56998   0.18789   1.000
    C76     C    0.44617   0.73657   0.53349   1.000
    O77     O    0.45086   0.68757   0.48266   1.000
    O78     O    0.49052   0.77649   0.50733   1.000
    C79     C    0.65921   0.62556   0.40152   1.000
    O80     O    0.59542   0.60699   0.39345   1.000
    O81     O    0.73708   0.61983   0.43000   1.000
    O82     O    0.71549   0.67383   0.39612   1.000
    C83     C    0.70628   0.79555   0.25721   1.000
    O84     O    0.76070   0.79448   0.30721   1.000
    O85     O    0.71201   0.73013   0.21941   1.000
    C86     C    0.03296   0.77582   0.37081   1.000
    O87     O    0.11662   0.81010   0.37700   1.000
    O88     O    0.04121   0.72322   0.32253   1.000
    O89     O    0.98776   0.78633   0.38969   1.000
loop_
    _geom_bond_atom_site_label_1
    _geom_bond_atom_site_label_2
    _geom_bond_distance
    _geom_bond_site_symmetry_2
    _ccdc_geom_bond_type
    N6     O7        1.36209      .   S
    Zr1    O7        2.56256      .   S
    N8     O9        1.35099      .   S
    Zr3    O9        2.53733      .   S
    N8     O10       1.53441      .   S
    N6     O10       2.55882      .   S
    N11    O12       1.36409      .   S
    Zr0    O12       2.56738      .   S
    N13    O14       1.35299      .   S
    Zr5    O14       2.54223      .   S
    N13    O15       1.53517      .   S
    N11    O15       2.55997  1_565   S
    N16    O17       1.35298      .   S
    Zr2    O17       2.54220      .   S
    N18    O19       1.36409      .   S
    Zr3    O19       2.56737      .   S
    N18    O20       1.53619      .   S
    N16    O20       2.55896  1_565   S
    N21    O22       1.39817  1_455   S
    Zr3    O22       2.59742      .   S
    N23    O24       1.40021      .   S
    Zr5    O24       2.60320      .   S
    N25    O26       1.39963      .   S
    Zr1    O26       2.60117      .   S
    N27    O28       1.39963      .   S
    Zr4    O28       2.60119      .   S
    N29    O30       1.35098      .   S
    Zr0    O30       2.53730      .   S
    N31    O32       1.53551      .   S
    N29    O32       2.55772      .   S
    N31    O33       1.36210      .   S
    Zr4    O33       2.56257      .   S
    N34    O35       1.35064      .   S
    Zr1    O35       2.53651      .   S
    N36    O37       1.53571      .   S
    N34    O37       2.55815  1_554   S
    N36    O38       1.36092      .   S
    Zr5    O38       2.55938      .   S
    N39    O40       1.36091      .   S
    Zr2    O40       2.55935      .   S
    N41    O42       1.53469      .   S
    N39    O42       2.55918  1_554   S
    N41    O43       1.35065      .   S
    Zr4    O43       2.53652      .   S
    N44    O45       1.39816  1_655   S
    Zr0    O45       2.59739      .   S
    N46    O47       1.40021      .   S
    Zr2    O47       2.60319      .   S
    C48    O49       1.09152      .   S
    Zr3    O49       2.27121      .   S
    C48    O50       1.16758      .   S
    N18    O50       2.35482      .   S
    C48    O51       0.85637  1_655   S
    Zr4    O51       1.89832      .   S
    C52    O53       1.09116      .   S
    Zr5    O53       2.27011      .   S
    C52    O54       1.16785      .   S
    N36    O54       2.35517      .   S
    C52    O55       0.85182      .   S
    Zr3    O55       1.89250      .   S
    C56    O57       1.05094      .   S
    Zr4    O57       2.14879      .   S
    C56    O58       1.16987      .   S
    N41    O58       2.36439      .   S
    C59    O60       1.16959      .   S
    N13    O60       2.36383      .   S
    C59    O61       1.05117      .   S
    Zr5    O61       2.14972      .   S
    C62    O63       1.16806      .   S
    N31    O63       2.35553      .   S
    C62    O64       0.85138      .   S
    Zr5    O64       1.89334      .   S
    C62    O65       1.09079      .   S
    Zr4    O65       2.26958      .   S
    C66    O67       1.05216      .   S
    Zr3    O67       2.15213  1_655   S
    C66    O68       1.16973      .   S
    N8     O68       2.36424  1_655   S
    C69    O70       1.05216      .   S
    Zr0    O70       2.15211  1_455   S
    C69    O71       1.16973      .   S
    N29    O71       2.36425  1_455   S
    C72    O73       0.85183      .   S
    Zr0    O73       1.89252      .   S
    C72    O74       1.09116      .   S
    Zr2    O74       2.27011      .   S
    C72    O75       1.16784      .   S
    N39    O75       2.35516      .   S
    C76    O77       1.05117      .   S
    Zr2    O77       2.14973      .   S
    C76    O78       1.16959      .   S
    N16    O78       2.36383      .   S
    C79    O80       0.85136      .   S
    Zr2    O80       1.89334      .   S
    C79    O81       1.16806      .   S
    N6     O81       2.35552      .   S
    C79    O82       1.09079      .   S
    Zr1    O82       2.26960      .   S
    C83    O84       1.05094      .   S
    Zr1    O84       2.14879      .   S
    C83    O85       1.16987      .   S
    N34    O85       2.36439      .   S
    C86    O87       1.16758      .   S
    N11    O87       2.35481      .   S
    C86    O88       1.09152      .   S
    Zr0    O88       2.27123      .   S
    C86    O89       0.85636  1_455   S
    Zr1    O89       1.89831      .   S
