# CIF file generated by openbabel 2.4.90, see http://openbabel.sf.net
data_I
_chemical_name_common ''
_cell_length_a 7.58
_cell_length_b 10.5225
_cell_length_c 13.26
_cell_angle_alpha 90.014
_cell_angle_beta 90.038
_cell_angle_gamma 90.102
_space_group_name_H-M_alt 'P 1'
_space_group_name_Hall 'P 1'
loop_
    _symmetry_equiv_pos_as_xyz
    x,y,z
loop_
    _atom_site_label
    _atom_site_type_symbol
    _atom_site_fract_x
    _atom_site_fract_y
    _atom_site_fract_z
    _atom_site_occupancy
    Zr0     Zr   0.21328   0.12172   0.30675   1.000
    Zr1     Zr   0.28880   0.87918   0.80599   1.000
    Zr2     Zr   0.78719   0.62141   0.19518   1.000
    Zr3     Zr   0.71159   0.37935   0.69488   1.000
    N4      N    0.11491   0.26286   0.50419   1.000
    O5      O    0.16702   0.10870   0.63433   1.000
    O6      O    0.02292   0.41174   0.34539   1.000
    N7      N    0.38553   0.73781   0.00438   1.000
    O8      O    0.33436   0.89207   0.13465   1.000
    O9      O    0.47640   0.58861   0.84567   1.000
    N10     N    0.88551   0.76309   0.99786   1.000
    O11     O    0.83342   0.60896   0.86738   1.000
    O12     O    0.97745   0.91194   0.15668   1.000
    N13     N    0.61485   0.23722   0.49670   1.000
    O14     O    0.66610   0.39156   0.36670   1.000
    O15     O    0.52401   0.08836   0.65548   1.000
    O16     O    0.64380   0.26574   0.60016   1.000
    O17     O    0.85583   0.73472   0.10116   1.000
    O18     O    0.14453   0.23468   0.40088   1.000
    O19     O    0.35659   0.76601   0.90071   1.000
loop_
    _geom_bond_atom_site_label_1
    _geom_bond_atom_site_label_2
    _geom_bond_distance
    _geom_bond_site_symmetry_2
    _ccdc_geom_bond_type
    N4     O5        2.40163      .   S
    Zr1    O5        3.44588  1_565   S
    N4     O6        2.71624      .   S
    Zr2    O6        3.46974  1_655   S
    N7     O8        2.40232      .   S
    Zr0    O8        3.44923  1_545   S
    N7     O9        2.71520  1_554   S
    Zr3    O9        3.47005      .   S
    N10    O11       2.40322      .   S
    Zr3    O11       3.45092      .   S
    N10    O12       2.71413  1_556   S
    Zr0    O12       3.46506  1_445   S
    N13    O14       2.39993      .   S
    Zr2    O14       3.44418      .   S
    N13    O15       2.71299      .   S
    Zr1    O15       3.46404  1_565   S
    Zr3    O16       1.80749      .   S
    N13    O16       1.42100      .   S
    Zr2    O17       1.80169      .   S
    N10    O17       1.41995  1_556   S
    Zr0    O18       1.80131      .   S
    N4     O18       1.41960      .   S
    Zr1    O19       1.80600      .   S
    N7     O19       1.42330  1_554   S
