# CIF file generated by openbabel 2.4.90, see http://openbabel.sf.net
data_I
_chemical_name_common ''
_cell_length_a 7.58
_cell_length_b 10.5225
_cell_length_c 13.26
_cell_angle_alpha 90.014
_cell_angle_beta 90.038
_cell_angle_gamma 90.102
_space_group_name_H-M_alt 'P 1'
_space_group_name_Hall 'P 1'
loop_
    _symmetry_equiv_pos_as_xyz
    x,y,z
loop_
    _atom_site_label
    _atom_site_type_symbol
    _atom_site_fract_x
    _atom_site_fract_y
    _atom_site_fract_z
    _atom_site_occupancy
    C0      C    0.21328   0.12172   0.30675   1.000
    C1      C    0.28880   0.87918   0.80599   1.000
    C2      C    0.78719   0.62141   0.19518   1.000
    C3      C    0.71159   0.37935   0.69488   1.000
    C4      C    0.03577   0.60240   0.36797   1.000
    C5      C    0.22295   0.34419   0.68848   1.000
    C6      C    0.23537   0.17448   0.81804   1.000
    C7      C    0.05956   0.90141   0.61473   1.000
    C8      C    0.02457   0.05990   0.47882   1.000
    C9      C    0.46178   0.39815   0.86818   1.000
    C10     C    0.27710   0.65699   0.18850   1.000
    C11     C    0.26650   0.82675   0.31822   1.000
    C12     C    0.44295   0.09903   0.11577   1.000
    C13     C    0.47681   0.94050   0.97891   1.000
    C14     C    0.96497   0.10275   0.13432   1.000
    C15     C    0.77773   0.84437   0.81363   1.000
    C16     C    0.76530   0.67472   0.68393   1.000
    C17     C    0.94050   0.40190   0.88658   1.000
    C18     C    0.97577   0.56035   0.02309   1.000
    C19     C    0.53822   0.89722   0.63280   1.000
    C20     C    0.72341   0.15654   0.31246   1.000
    C21     C    0.73419   0.32657   0.18292   1.000
    C22     C    0.55743   0.59826   0.38608   1.000
    C23     C    0.52364   0.43928   0.52234   1.000
    C24     C    0.10754   0.39593   0.22323   1.000
    C25     C    0.10388   0.40080   0.33764   1.000
    C26     C    0.06660   0.50719   0.39461   1.000
    C27     C    0.11208   0.31401   0.49295   1.000
    C28     C    0.12273   0.21711   0.57177   1.000
    C29     C    0.17789   0.24831   0.66997   1.000
    C30     C    0.18842   0.15319   0.74222   1.000
    C31     C    0.09177   0.00098   0.62891   1.000
    C32     C    0.07541   0.09007   0.55221   1.000
    C33     C    0.39236   0.60428   0.72342   1.000
    C34     C    0.39526   0.59997   0.83781   1.000
    C35     C    0.43157   0.49346   0.89484   1.000
    C36     C    0.38753   0.68689   0.99302   1.000
    C37     C    0.37777   0.78377   0.07184   1.000
    C38     C    0.32271   0.75272   0.17004   1.000
    C39     C    0.31325   0.84784   0.24236   1.000
    C40     C    0.41071   0.99972   0.12907   1.000
    C41     C    0.42609   0.91060   0.05233   1.000
    C42     C    0.89262   0.89589   0.27897   1.000
    C43     C    0.89640   0.90086   0.16456   1.000
    C44     C    0.93381   0.00739   0.10773   1.000
    C45     C    0.88834   0.81422   0.00917   1.000
    C46     C    0.87776   0.71740   0.93026   1.000
    C47     C    0.82271   0.74858   0.83208   1.000
    C48     C    0.81218   0.65348   0.75974   1.000
    C49     C    0.90871   0.50140   0.87294   1.000
    C50     C    0.92504   0.59046   0.94971   1.000
    C51     C    0.60799   0.10422   0.77741   1.000
    C52     C    0.60499   0.09925   0.66311   1.000
    C53     C    0.56843   0.99260   0.60618   1.000
    C54     C    0.61278   0.18598   0.50791   1.000
    C55     C    0.62263   0.28294   0.42918   1.000
    C56     C    0.67777   0.25214   0.33096   1.000
    C57     C    0.68734   0.34740   0.25879   1.000
    C58     C    0.58987   0.49891   0.37228   1.000
    C59     C    0.57439   0.40962   0.44888   1.000
    C60     C    0.06462   0.47192   0.52029   1.000
    C61     C    0.43371   0.52882   0.02047   1.000
    C62     C    0.93597   0.97227   0.98202   1.000
    C63     C    0.56626   0.02780   0.48051   1.000
    C64     C    0.13044   0.29285   0.39468   1.000
    C65     C    0.14947   0.02992   0.72295   1.000
    C66     C    0.36953   0.70810   0.89473   1.000
    C67     C    0.35310   0.97095   0.22311   1.000
    C68     C    0.86985   0.79290   0.10740   1.000
    C69     C    0.85106   0.53029   0.77892   1.000
    C70     C    0.63089   0.20738   0.60616   1.000
    C71     C    0.64752   0.47038   0.27822   1.000
    C72     C    0.13956   0.28976   0.18209   1.000
    C73     C    0.07469   0.49983   0.17799   1.000
    C74     C    0.36342   0.71040   0.68148   1.000
    C75     C    0.42296   0.49946   0.67904   1.000
    C76     C    0.86042   0.78967   0.32006   1.000
    C77     C    0.92552   0.99987   0.32425   1.000
    C78     C    0.63689   0.21092   0.81854   1.000
    C79     C    0.57754   0.99983   0.82254   1.000
    O80     O    0.87909   0.80356   0.05829   1.000
    O81     O    0.88305   0.76581   0.96972   1.000
    O82     O    0.91215   0.89325   0.99560   1.000
    O83     O    0.43264   0.51114   0.95766   1.000
    O84     O    0.41062   0.60786   0.00675   1.000
    O85     O    0.95041   0.57541   0.98640   1.000
    O86     O    0.40193   0.84719   0.06208   1.000
    O87     O    0.41840   0.95516   0.09070   1.000
    O88     O    0.45145   0.92555   0.01562   1.000
    O89     O    0.35024   0.76825   0.12094   1.000
    O90     O    0.38265   0.73533   0.03243   1.000
    O91     O    0.88313   0.84688   0.13598   1.000
    O92     O    0.82852   0.70716   0.15129   1.000
    O93     O    0.94939   0.05507   0.12103   1.000
    O94     O    0.91511   0.95413   0.13614   1.000
    O95     O    0.93489   0.98983   0.04487   1.000
    O96     O    0.42683   0.04937   0.12242   1.000
    O97     O    0.38191   0.98534   0.17609   1.000
    O98     O    0.89451   0.89838   0.22177   1.000
    O99     O    0.29991   0.70485   0.17927   1.000
    O100    O    0.31798   0.80028   0.20620   1.000
    O101    O    0.93094   0.56062   0.18659   1.000
    O102    O    0.09111   0.44788   0.20061   1.000
    O103    O    0.12355   0.34285   0.20266   1.000
    O104    O    0.17642   0.20574   0.24442   1.000
    O105    O    0.71076   0.33699   0.22086   1.000
    O106    O    0.71735   0.54589   0.23670   1.000
    O107    O    0.82380   0.70554   0.25762   1.000
    O108    O    0.33317   0.90940   0.23273   1.000
    O109    O    0.28319   0.04633   0.26493   1.000
    O110    O    0.10571   0.39837   0.28043   1.000
    O111    O    0.28987   0.83730   0.28029   1.000
    O112    O    0.66743   0.40889   0.26851   1.000
    O113    O    0.68255   0.29977   0.29488   1.000
    O114    O    0.61869   0.48464   0.32525   1.000
    O115    O    0.87652   0.84278   0.29952   1.000
    O116    O    0.90907   0.94788   0.30161   1.000
    O117    O    0.06940   0.06079   0.31550   1.000
    O118    O    0.17186   0.20728   0.35072   1.000
    O119    O    0.70059   0.20434   0.32171   1.000
    O120    O    0.65020   0.26754   0.38007   1.000
    O121    O    0.08524   0.45400   0.36613   1.000
    O122    O    0.11716   0.34683   0.36616   1.000
    O123    O    0.05119   0.55480   0.38129   1.000
    O124    O    0.57365   0.54858   0.37918   1.000
    O125    O    0.58213   0.45426   0.41058   1.000
    O126    O    0.06561   0.48956   0.45745   1.000
    O127    O    0.12126   0.30343   0.44381   1.000
    O128    O    0.59851   0.34628   0.43903   1.000
    O129    O    0.61770   0.23446   0.46854   1.000
    O130    O    0.54902   0.42445   0.48561   1.000
    O131    O    0.04999   0.07498   0.51552   1.000
    O132    O    0.58952   0.10689   0.49421   1.000
    O133    O    0.56734   0.01020   0.54335   1.000
    O134    O    0.08835   0.39297   0.50662   1.000
    O135    O    0.11741   0.26556   0.53236   1.000
    O136    O    0.62183   0.19668   0.55703   1.000
    O137    O    0.09907   0.15359   0.56199   1.000
    O138    O    0.08359   0.04552   0.59056   1.000
    O139    O    0.15031   0.23271   0.62087   1.000
    O140    O    0.61794   0.15331   0.63463   1.000
    O141    O    0.67124   0.29336   0.65052   1.000
    O142    O    0.55333   0.94491   0.61949   1.000
    O143    O    0.58671   0.04592   0.63464   1.000
    O144    O    0.07567   0.95119   0.62182   1.000
    O145    O    0.12062   0.01545   0.67593   1.000
    O146    O    0.60649   0.10173   0.72026   1.000
    O147    O    0.20042   0.29625   0.67922   1.000
    O148    O    0.18315   0.20075   0.70609   1.000
    O149    O    0.56728   0.43940   0.68696   1.000
    O150    O    0.40766   0.55187   0.70123   1.000
    O151    O    0.37789   0.65734   0.70245   1.000
    O152    O    0.32611   0.79479   0.74373   1.000
    O153    O    0.78874   0.66410   0.72183   1.000
    O154    O    0.78133   0.45482   0.73690   1.000
    O155    O    0.67424   0.29513   0.75671   1.000
    O156    O    0.16894   0.09155   0.73258   1.000
    O157    O    0.21913   0.95455   0.76447   1.000
    O158    O    0.39381   0.60212   0.78062   1.000
    O159    O    0.21190   0.16383   0.78013   1.000
    O160    O    0.83162   0.59188   0.76933   1.000
    O161    O    0.81745   0.70103   0.79591   1.000
    O162    O    0.62244   0.15757   0.79798   1.000
    O163    O    0.59277   0.05202   0.79998   1.000
    O164    O    0.87988   0.51584   0.82593   1.000
    O165    O    0.43317   0.93950   0.81426   1.000
    O166    O    0.32916   0.79364   0.85036   1.000
    O167    O    0.80022   0.79648   0.82285   1.000
    O168    O    0.85023   0.73299   0.88117   1.000
    O169    O    0.38239   0.65404   0.86627   1.000
    O170    O    0.41341   0.54671   0.86633   1.000
    O171    O    0.44667   0.44581   0.88151   1.000
    O172    O    0.92460   0.45165   0.87976   1.000
    O173    O    0.91688   0.54593   0.91133   1.000
    O174    O    0.37853   0.69750   0.94387   1.000
    O175    O    0.90140   0.65393   0.93999   1.000
loop_
    _geom_bond_atom_site_label_1
    _geom_bond_atom_site_label_2
    _geom_bond_distance
    _geom_bond_site_symmetry_2
    _ccdc_geom_bond_type
    C45    O80       0.66462      .   S
    C68    O80       0.66462      .   S
    C45    O81       0.73119  1_554   S
    C46    O81       0.73119      .   S
    C45    O82       0.86948  1_554   S
    C62    O82       0.86948      .   S
    C61    O83       0.85343  1_554   S
    C35    O83       0.85343      .   S
    C61    O84       0.86943      .   S
    C36    O84       0.86943  1_556   S
    C18    O85       0.54655  1_554   S
    C50    O85       0.54655      .   S
    C41    O86       0.70367      .   S
    C37    O86       0.70367      .   S
    C41    O87       0.69437      .   S
    C40    O87       0.69437      .   S
    C41    O88       0.54654      .   S
    C13    O88       0.54654  1_556   S
    C37    O89       0.70304      .   S
    C38    O89       0.70304      .   S
    C37    O90       0.73091      .   S
    C36    O90       0.73091  1_556   S
    C68    O91       0.68992      .   S
    C43    O91       0.68992      .   S
    C68    O92       1.11821      .   S
    C2     O92       1.11821      .   S
    C44    O93       0.54449      .   S
    C14    O93       0.54449      .   S
    C44    O94       0.69005  1_545   S
    C43    O94       0.69005      .   S
    C44    O95       0.85367  1_545   S
    C62    O95       0.85367  1_556   S
    C12    O96       0.54358      .   S
    C40    O96       0.54358  1_565   S
    C40    O97       0.67779      .   S
    C67    O97       0.67779      .   S
    C43    O98       0.75913      .   S
    C42    O98       0.75913      .   S
    C38    O99       0.54617      .   S
    C10    O99       0.54617      .   S
    C38    O100      0.69397      .   S
    C39    O100      0.69397      .   S
    C73    O101      1.26969  1_455   S
    C2     O101      1.26969      .   S
    C73    O102      0.63603      .   S
    C24    O102      0.63603      .   S
    C72    O103      0.63352      .   S
    C24    O103      0.63352      .   S
    C72    O104      1.24250      .   S
    C0     O104      1.24250      .   S
    C21    O105      0.54472      .   S
    C57    O105      0.54472      .   S
    C2     O106      1.10177      .   S
    C71    O106      1.10177      .   S
    C2     O107      1.24280      .   S
    C76    O107      1.24280      .   S
    C67    O108      0.67700      .   S
    C39    O108      0.67700      .   S
    C67    O109      1.10420  1_565   S
    C0     O109      1.10420      .   S
    C24    O110      0.75914      .   S
    C25    O110      0.75914      .   S
    C39    O111      0.54474      .   S
    C11    O111      0.54474      .   S
    C57    O112      0.67698      .   S
    C71    O112      0.67698      .   S
    C57    O113      0.69393      .   S
    C56    O113      0.69393      .   S
    C71    O114      0.67778      .   S
    C58    O114      0.67778      .   S
    C42    O115      0.63349      .   S
    C76    O115      0.63349      .   S
    C42    O116      0.63603      .   S
    C77    O116      0.63603      .   S
    C0     O117      1.26949      .   S
    C77    O117      1.26949  1_665   S
    C0     O118      1.11808      .   S
    C64    O118      1.11808      .   S
    C20    O119      0.54615      .   S
    C56    O119      0.54615      .   S
    C56    O120      0.70296      .   S
    C55    O120      0.70296      .   S
    C25    O121      0.69002      .   S
    C26    O121      0.69002      .   S
    C25    O122      0.68994      .   S
    C64    O122      0.68994      .   S
    C4     O123      0.54408      .   S
    C26    O123      0.54408      .   S
    C58    O124      0.54492      .   S
    C22    O124      0.54492      .   S
    C58    O125      0.69432      .   S
    C59    O125      0.69432      .   S
    C26    O126      0.85377      .   S
    C60    O126      0.85377      .   S
    C64    O127      0.66462      .   S
    C27    O127      0.66462      .   S
    C55    O128      0.70365      .   S
    C59    O128      0.70365      .   S
    C55    O129      0.73087      .   S
    C54    O129      0.73087      .   S
    C59    O130      0.54660      .   S
    C23    O130      0.54660      .   S
    C8     O131      0.54663      .   S
    C32    O131      0.54663      .   S
    C63    O132      0.86950      .   S
    C54    O132      0.86950      .   S
    C63    O133      0.85360      .   S
    C53    O133      0.85360  1_565   S
    C27    O134      0.86947      .   S
    C60    O134      0.86947      .   S
    C27    O135      0.73135      .   S
    C28    O135      0.73135      .   S
    C54    O136      0.66452      .   S
    C70    O136      0.66452      .   S
    C32    O137      0.70371      .   S
    C28    O137      0.70371      .   S
    C32    O138      0.69448      .   S
    C31    O138      0.69448      .   S
    C28    O139      0.70297      .   S
    C29    O139      0.70297      .   S
    C70    O140      0.68974      .   S
    C52    O140      0.68974      .   S
    C70    O141      1.12102      .   S
    C3     O141      1.12102      .   S
    C53    O142      0.54397      .   S
    C19    O142      0.54397      .   S
    C53    O143      0.68999  1_565   S
    C52    O143      0.68999      .   S
    C7     O144      0.54580      .   S
    C31    O144      0.54580  1_545   S
    C31    O145      0.67779      .   S
    C65    O145      0.67779      .   S
    C52    O146      0.75837      .   S
    C51    O146      0.75837      .   S
    C29    O147      0.54619      .   S
    C5     O147      0.54619      .   S
    C29    O148      0.69406      .   S
    C30    O148      0.69406      .   S
    C75    O149      1.26862      .   S
    C3     O149      1.26862      .   S
    C75    O150      0.63586      .   S
    C33    O150      0.63586      .   S
    C74    O151      0.63350      .   S
    C33    O151      0.63350      .   S
    C74    O152      1.24530      .   S
    C1     O152      1.24530      .   S
    C16    O153      0.54471      .   S
    C48    O153      0.54471      .   S
    C3     O154      1.10383      .   S
    C69    O154      1.10383      .   S
    C3     O155      1.23993      .   S
    C78    O155      1.23993      .   S
    C65    O156      0.67700      .   S
    C30    O156      0.67700      .   S
    C65    O157      1.10104  1_545   S
    C1     O157      1.10104      .   S
    C33    O158      0.75886      .   S
    C34    O158      0.75886      .   S
    C30    O159      0.54470      .   S
    C6     O159      0.54470      .   S
    C48    O160      0.67698      .   S
    C69    O160      0.67698      .   S
    C48    O161      0.69406      .   S
    C47    O161      0.69406      .   S
    C51    O162      0.63338      .   S
    C78    O162      0.63338      .   S
    C51    O163      0.63590      .   S
    C79    O163      0.63590  1_565   S
    C69    O164      0.67778      .   S
    C49    O164      0.67778      .   S
    C1     O165      1.26881      .   S
    C79    O165      1.26881      .   S
    C1     O166      1.11842      .   S
    C66    O166      1.11842      .   S
    C15    O167      0.54620      .   S
    C47    O167      0.54620      .   S
    C47    O168      0.70298      .   S
    C46    O168      0.70298      .   S
    C34    O169      0.68970      .   S
    C66    O169      0.68970      .   S
    C34    O170      0.69011      .   S
    C35    O170      0.69011      .   S
    C9     O171      0.54403      .   S
    C35    O171      0.54403      .   S
    C49    O172      0.54493      .   S
    C17    O172      0.54493      .   S
    C49    O173      0.69445      .   S
    C50    O173      0.69445      .   S
    C66    O174      0.66471      .   S
    C36    O174      0.66471      .   S
    C46    O175      0.70369      .   S
    C50    O175      0.70369      .   S
