# CIF file generated by openbabel 2.4.90, see http://openbabel.sf.net
data_I
_chemical_name_common ''
_cell_length_a 10.209
_cell_length_b 10.2175
_cell_length_c 16.563
_cell_angle_alpha 83.417
_cell_angle_beta 83.414
_cell_angle_gamma 86.005
_space_group_name_H-M_alt 'P 1'
_space_group_name_Hall 'P 1'
loop_
    _symmetry_equiv_pos_as_xyz
    x,y,z
loop_
    _atom_site_label
    _atom_site_type_symbol
    _atom_site_fract_x
    _atom_site_fract_y
    _atom_site_fract_z
    _atom_site_occupancy
    H0      H    0.96151   0.09062   0.69739   1.000
    H1      H    0.37708   0.05365   0.61036   1.000
    H2      H    0.41705   0.20254   0.71446   1.000
    H3      H    0.22370   0.28857   0.80473   1.000
    H4      H    0.26998   0.05207   0.48595   1.000
    H5      H    0.98524   0.86930   0.66994   1.000
    H6      H    0.05966   0.75318   0.42511   1.000
    H7      H    0.95228   0.64568   0.69633   1.000
    H8      H    0.83604   0.71988   0.45150   1.000
    H9      H    0.65330   0.43528   0.63554   1.000
    H10     H    0.61497   0.74358   0.42406   1.000
    H11     H    0.65103   0.32843   0.51122   1.000
    H12     H    0.50173   0.28880   0.40722   1.000
    H13     H    0.41601   0.48213   0.31688   1.000
    H14     H    0.09078   0.96188   0.19743   1.000
    H15     H    0.05488   0.37696   0.11016   1.000
    H16     H    0.20423   0.41662   0.21412   1.000
    H17     H    0.28986   0.22332   0.30452   1.000
    H18     H    0.05239   0.27015   0.98590   1.000
    H19     H    0.86974   0.98556   0.16997   1.000
    H20     H    0.75338   0.05975   0.92513   1.000
    H21     H    0.64601   0.95233   0.19640   1.000
    H22     H    0.72044   0.83615   0.95154   1.000
    H23     H    0.43572   0.65338   0.13561   1.000
    H24     H    0.74405   0.61495   0.92406   1.000
    H25     H    0.32862   0.65156   0.01132   1.000
    H26     H    0.28862   0.50258   0.90724   1.000
    H27     H    0.48193   0.41669   0.81689   1.000
    C28     C    0.06466   0.11065   0.69970   1.000
    C29     C    0.16549   0.05894   0.64573   1.000
    C30     C    0.29503   0.09319   0.65032   1.000
    C31     C    0.31736   0.17594   0.70805   1.000
    C32     C    0.21101   0.22249   0.75934   1.000
    C33     C    0.19495   0.98112   0.50656   1.000
    C34     C    0.13275   0.97162   0.58666   1.000
    C35     C    0.03639   0.87900   0.60825   1.000
    C36     C    0.00625   0.79896   0.55047   1.000
    C37     C    0.07502   0.81539   0.47217   1.000
    C38     C    0.89003   0.63028   0.64928   1.000
    C39     C    0.90644   0.69900   0.57097   1.000
    C40     C    0.82638   0.66878   0.51320   1.000
    C41     C    0.73376   0.57243   0.53480   1.000
    C42     C    0.72427   0.51028   0.61490   1.000
    C43     C    0.59465   0.64063   0.42178   1.000
    C44     C    0.64624   0.53981   0.47577   1.000
    C45     C    0.61161   0.41047   0.47124   1.000
    C46     C    0.52864   0.38833   0.41356   1.000
    C47     C    0.48227   0.49466   0.36223   1.000
    C48     C    0.11111   0.06480   0.19970   1.000
    C49     C    0.05957   0.16560   0.14568   1.000
    C50     C    0.09426   0.29494   0.15016   1.000
    C51     C    0.17726   0.31709   0.20782   1.000
    C52     C    0.22359   0.21078   0.25918   1.000
    C53     C    0.98144   0.19513   0.00000   1.000
    C54     C    0.97191   0.13302   0.08669   1.000
    C55     C    0.87931   0.03665   0.10828   1.000
    C56     C    0.79927   0.00645   0.05052   1.000
    C57     C    0.81564   0.07516   0.97218   1.000
    C58     C    0.63064   0.89012   0.14934   1.000
    C59     C    0.69944   0.90651   0.07104   1.000
    C60     C    0.66927   0.82649   0.01327   1.000
    C61     C    0.57290   0.73388   0.03487   1.000
    C62     C    0.51074   0.72434   0.11498   1.000
    C63     C    0.64097   0.59481   0.92179   1.000
    C64     C    0.54017   0.64644   0.97581   1.000
    C65     C    0.41064   0.61208   0.97129   1.000
    C66     C    0.38830   0.52928   0.91360   1.000
    C67     C    0.49462   0.48281   0.86225   1.000
    N68     N    0.08539   0.19063   0.75577   1.000
    N69     N    0.16697   0.90510   0.44997   1.000
    N70     N    0.80036   0.53828   0.67147   1.000
    N71     N    0.51453   0.62008   0.36572   1.000
    N72     N    0.19124   0.08538   0.25575   1.000
    N73     N    0.90529   0.16717   0.94999   1.000
    N74     N    0.53869   0.80040   0.17155   1.000
    N75     N    0.62022   0.51478   0.86574   1.000
loop_
    _geom_bond_atom_site_label_1
    _geom_bond_atom_site_label_2
    _geom_bond_distance
    _geom_bond_site_symmetry_2
    _ccdc_geom_bond_type
    C53    C54       1.49716      .   S
    C53    N73       1.26688  1_554   S
    C53    H18       1.07900  1_654   S
    H25    C65       1.09109  1_554   S
    C60    C61       1.40094      .   S
    C60    C59       1.40048      .   S
    C60    H22       1.09054  1_554   S
    C61    C62       1.39959      .   S
    C61    C64       1.47761  1_554   S
    C56    C59       1.47745  1_545   S
    C56    C55       1.40005      .   S
    C56    C57       1.40083  1_554   S
    C59    C58       1.40038      .   S
    C54    C55       1.40091      .   S
    C54    C49       1.47755  1_655   S
    C55    H19       1.09000  1_545   S
    H15    C50       1.09086      .   S
    C62    H23       1.09068      .   S
    C62    N74       1.34999      .   S
    C49    C50       1.40391      .   S
    C49    C48       1.39975      .   S
    C58    N74       1.34916      .   S
    C58    H21       1.09159      .   S
    C50    C51       1.39394      .   S
    H14    C48       1.09159  1_565   S
    C48    N72       1.34845      .   S
    C51    H16       1.09124      .   S
    C51    C52       1.39143      .   S
    N72    C52       1.35424      .   S
    C52    H17       1.09028      .   S
    H13    C47       1.09029      .   S
    C47    N71       1.35427      .   S
    C47    C46       1.39142      .   S
    N71    C43       1.34843      .   S
    H12    C46       1.09126      .   S
    C46    C45       1.39393      .   S
    C43    H10       1.09187      .   S
    C43    C44       1.39975      .   S
    H6     C37       1.09157      .   S
    N69    C37       1.34915      .   S
    N69    C33       1.35001      .   S
    H8     C40       1.09012      .   S
    C45    C44       1.40391      .   S
    C45    H11       1.09086      .   S
    C37    C36       1.40024      .   S
    C44    C41       1.47718      .   S
    H4     C33       1.09068  1_545   S
    C33    C34       1.39945      .   S
    C40    C41       1.40091      .   S
    C40    C39       1.40045      .   S
    C41    C42       1.39960      .   S
    C36    C39       1.47745  1_455   S
    C36    C35       1.40053      .   S
    C39    C38       1.40037      .   S
    C34    C35       1.40093      .   S
    C34    C29       1.47709  1_565   S
    C35    H5        1.09000  1_455   S
    H1     C30       1.09085      .   S
    C42    H9        1.09070      .   S
    C42    N70       1.35002      .   S
    C29    C30       1.40394      .   S
    C29    C28       1.39975      .   S
    C38    N70       1.34916      .   S
    C38    H7        1.09158      .   S
    C30    C31       1.39390      .   S
    H0     C28       1.09233  1_655   S
    C28    N68       1.34848      .   S
    C31    H2        1.09126      .   S
    C31    C32       1.39140      .   S
    N68    C32       1.35430      .   S
    C32    H3        1.09026      .   S
    H27    C67       1.09027      .   S
    C67    N75       1.35428      .   S
    C67    C66       1.39140      .   S
    N75    C63       1.34849      .   S
    H26    C66       1.09127      .   S
    C66    C65       1.39390      .   S
    C63    H24       1.09188      .   S
    C63    C64       1.39976      .   S
    H20    C57       1.09160      .   S
    N73    C57       1.34914      .   S
    C65    C64       1.40398      .   S
