# CIF file generated by openbabel 2.4.90, see http://openbabel.sf.net
data_I
_chemical_name_common ''
_cell_length_a 10.209
_cell_length_b 10.2175
_cell_length_c 16.563
_cell_angle_alpha 83.417
_cell_angle_beta 83.414
_cell_angle_gamma 86.005
_space_group_name_H-M_alt 'P 1'
_space_group_name_Hall 'P 1'
loop_
    _symmetry_equiv_pos_as_xyz
    x,y,z
loop_
    _atom_site_label
    _atom_site_type_symbol
    _atom_site_fract_x
    _atom_site_fract_y
    _atom_site_fract_z
    _atom_site_occupancy
    Cu0     Cu   0.77199   0.45051   0.78784   1.000
    Cu1     Cu   0.25507   0.93353   0.33367   1.000
    Cu2     Cu   0.45057   0.77198   0.28785   1.000
    Cu3     Cu   0.93358   0.25502   0.83363   1.000
    I4      I    0.71027   0.20369   0.76652   1.000
    I5      I    0.99530   0.50181   0.85498   1.000
    I6      I    0.20355   0.71058   0.26638   1.000
    I7      I    0.50214   0.99488   0.35516   1.000
loop_
    _geom_bond_atom_site_label_1
    _geom_bond_atom_site_label_2
    _geom_bond_distance
    _geom_bond_site_symmetry_2
    _ccdc_geom_bond_type
    I6     Cu2       2.71248      .   S
    Cu2    Cu1       2.60089      .   S
    Cu1    I7        2.71278      .   S
    I4     Cu0       2.71261      .   S
    Cu0    Cu3       2.60130      .   S
    Cu3    I5        2.71246      .   S
