# CIF file generated by openbabel 2.4.90, see http://openbabel.sf.net
data_I
_chemical_name_common ''
_cell_length_a 10.209
_cell_length_b 10.2175
_cell_length_c 16.563
_cell_angle_alpha 83.417
_cell_angle_beta 83.414
_cell_angle_gamma 86.005
_space_group_name_H-M_alt 'P 1'
_space_group_name_Hall 'P 1'
loop_
    _symmetry_equiv_pos_as_xyz
    x,y,z
loop_
    _atom_site_label
    _atom_site_type_symbol
    _atom_site_fract_x
    _atom_site_fract_y
    _atom_site_fract_z
    _atom_site_occupancy
    Zr0     Zr   0.93358   0.25502   0.83363   1.000
    Zr1     Zr   0.77199   0.45051   0.78784   1.000
    Zr2     Zr   0.25507   0.93353   0.33367   1.000
    Zr3     Zr   0.45057   0.77198   0.28785   1.000
    Zr4     Zr   0.71027   0.20369   0.76652   1.000
    Zr5     Zr   0.99530   0.50181   0.85498   1.000
    Zr6     Zr   0.20355   0.71058   0.26638   1.000
    Zr7     Zr   0.50214   0.99488   0.35516   1.000
    O8      O    0.32706   0.74128   0.27712   1.000
    O9      O    0.35282   0.85276   0.31076   1.000
    O10     O    0.37860   0.96420   0.34441   1.000
    O11     O    0.74113   0.32710   0.77718   1.000
    O12     O    0.85279   0.35276   0.81074   1.000
    O13     O    0.96444   0.37842   0.84430   1.000
    N14     N    0.91921   0.78605   0.56075   1.000
    O15     O    0.96435   0.00444   0.67773   1.000
    O16     O    0.06512   0.85268   0.47629   1.000
    O17     O    0.85269   0.64022   0.64521   1.000
    O18     O    0.70088   0.74104   0.44377   1.000
    N19     N    0.78650   0.91937   0.06057   1.000
    O20     O    0.00483   0.96441   0.17764   1.000
    O21     O    0.85297   0.06523   0.97619   1.000
    O22     O    0.64057   0.85278   0.14514   1.000
    O23     O    0.74131   0.70101   0.94368   1.000
loop_
    _geom_bond_atom_site_label_1
    _geom_bond_atom_site_label_2
    _geom_bond_distance
    _geom_bond_site_symmetry_2
    _ccdc_geom_bond_type
    Zr6    O8        1.35624      .   S
    Zr3    O8        1.35624      .   S
    Zr3    O9        1.30045      .   S
    Zr2    O9        1.30045      .   S
    Zr2    O10       1.35639      .   S
    Zr7    O10       1.35639      .   S
    Zr4    O11       1.35631      .   S
    Zr1    O11       1.35631      .   S
    Zr1    O12       1.30065      .   S
    Zr0    O12       1.30065      .   S
    Zr0    O13       1.35623      .   S
    Zr5    O13       1.35623      .   S
    N14    O15       3.20695  1_565   S
    Zr0    O15       3.81310      .   S
    N14    O16       2.02099  1_655   S
    Zr2    O16       2.95766      .   S
    N14    O17       2.02065      .   S
    Zr1    O17       2.95693      .   S
    N14    O18       3.20494      .   S
    Zr3    O18       3.80959      .   S
    N19    O20       3.20600  1_655   S
    Zr2    O20       3.81045      .   S
    N19    O21       2.02009  1_564   S
    Zr0    O21       2.95630      .   S
    N19    O22       2.02200      .   S
    Zr3    O22       2.95895      .   S
    N19    O23       3.20590  1_554   S
    Zr1    O23       3.81171      .   S
