# CIF file generated by openbabel 2.4.90, see http://openbabel.sf.net
data_I
_chemical_name_common ''
_cell_length_a 18.626
_cell_length_b 14.536
_cell_length_c 27.649
_cell_angle_alpha 89.935
_cell_angle_beta 89.867
_cell_angle_gamma 92.543
_space_group_name_H-M_alt 'P 1'
_space_group_name_Hall 'P 1'
loop_
    _symmetry_equiv_pos_as_xyz
    x,y,z
loop_
    _atom_site_label
    _atom_site_type_symbol
    _atom_site_fract_x
    _atom_site_fract_y
    _atom_site_fract_z
    _atom_site_occupancy
    H0      H    0.05532   0.33059   0.36578   1.000
    H1      H    0.55531   0.33059   0.36578   1.000
    H2      H    0.08968   0.55561   0.26493   1.000
    H3      H    0.58967   0.55561   0.26493   1.000
    H4      H    0.39077   0.39156   0.26270   1.000
    H5      H    0.89076   0.39156   0.26270   1.000
    H6      H    0.17361   0.35578   0.37292   1.000
    H7      H    0.67360   0.35578   0.37292   1.000
    H8      H    0.12456   0.43384   0.40855   1.000
    H9      H    0.62455   0.43384   0.40855   1.000
    H10     H    0.30485   0.39017   0.35640   1.000
    H11     H    0.80484   0.39016   0.35642   1.000
    H12     H    0.41788   0.46351   0.38758   1.000
    H13     H    0.91787   0.46350   0.38758   1.000
    H14     H    0.29591   0.64355   0.47632   1.000
    H15     H    0.79590   0.64357   0.47631   1.000
    H16     H    0.18334   0.56594   0.44730   1.000
    H17     H    0.68333   0.56595   0.44736   1.000
    H18     H    0.99225   0.59028   0.38518   1.000
    H19     H    0.49224   0.59030   0.38518   1.000
    H20     H    0.10403   0.66640   0.41553   1.000
    H21     H    0.60402   0.66641   0.41550   1.000
    H22     H    0.00327   0.70827   0.55348   1.000
    H23     H    0.50326   0.70825   0.55348   1.000
    H24     H    0.39087   0.63427   0.52301   1.000
    H25     H    0.89086   0.63428   0.52301   1.000
    H26     H    0.12231   0.76408   0.54247   1.000
    H27     H    0.62230   0.76408   0.54247   1.000
    H28     H    0.17215   0.68206   0.51015   1.000
    H29     H    0.67214   0.68206   0.51015   1.000
    H30     H    0.21119   0.92472   0.41579   1.000
    H31     H    0.71118   0.92472   0.41579   1.000
    H32     H    0.41331   0.96586   0.49074   1.000
    H33     H    0.91331   0.96587   0.49074   1.000
    H34     H    0.25093   0.77788   0.54856   1.000
    H35     H    0.75092   0.77788   0.54856   1.000
    H36     H    0.44546   0.16902   0.86634   1.000
    H37     H    0.94546   0.16902   0.86634   1.000
    H38     H    0.41067   0.94439   0.76564   1.000
    H39     H    0.91066   0.94438   0.76565   1.000
    H40     H    0.10956   0.10856   0.76243   1.000
    H41     H    0.60956   0.10856   0.76243   1.000
    H42     H    0.32741   0.14450   0.87367   1.000
    H43     H    0.82740   0.14450   0.87367   1.000
    H44     H    0.37591   0.06615   0.90945   1.000
    H45     H    0.87590   0.06616   0.90945   1.000
    H46     H    0.19617   0.11155   0.85759   1.000
    H47     H    0.69616   0.11155   0.85759   1.000
    H48     H    0.08267   0.03821   0.88851   1.000
    H49     H    0.58266   0.03821   0.88851   1.000
    H50     H    0.20343   0.85599   0.97662   1.000
    H51     H    0.70342   0.85600   0.97662   1.000
    H52     H    0.31643   0.93375   0.94802   1.000
    H53     H    0.81642   0.93375   0.94803   1.000
    H54     H    0.50799   0.91162   0.88558   1.000
    H55     H    0.00000   0.91162   0.88558   1.000
    H56     H    0.39591   0.83515   0.91565   1.000
    H57     H    0.89590   0.83516   0.91560   1.000
    H58     H    0.49565   0.79053   0.05343   1.000
    H59     H    0.99564   0.79052   0.05343   1.000
    H60     H    0.10836   0.86456   0.02318   1.000
    H61     H    0.60835   0.86457   0.02318   1.000
    H62     H    0.37660   0.73582   0.04244   1.000
    H63     H    0.87659   0.73583   0.04244   1.000
    H64     H    0.32693   0.81768   0.00990   1.000
    H65     H    0.82693   0.81768   0.00991   1.000
    H66     H    0.28947   0.57578   0.91534   1.000
    H67     H    0.78947   0.57578   0.91534   1.000
    H68     H    0.08603   0.53449   0.98929   1.000
    H69     H    0.58602   0.53449   0.98929   1.000
    H70     H    0.24756   0.72189   0.04797   1.000
    H71     H    0.74755   0.72189   0.04797   1.000
    H72     H    0.44467   0.66939   0.63420   1.000
    H73     H    0.94466   0.66939   0.63420   1.000
    H74     H    0.41031   0.44438   0.73505   1.000
    H75     H    0.91030   0.44438   0.73505   1.000
    H76     H    0.10922   0.60842   0.73720   1.000
    H77     H    0.60921   0.60842   0.73720   1.000
    H78     H    0.32637   0.64420   0.62706   1.000
    H79     H    0.82637   0.64420   0.62706   1.000
    H80     H    0.37543   0.56613   0.59143   1.000
    H81     H    0.87543   0.56613   0.59143   1.000
    H82     H    0.19514   0.60980   0.64356   1.000
    H83     H    0.69513   0.60981   0.64356   1.000
    C84     C    0.50112   0.68182   0.51662   1.000
    C85     C    0.43764   0.63976   0.49932   1.000
    C86     C    0.93763   0.63977   0.49932   1.000
    C87     C    0.13101   0.73409   0.50646   1.000
    H88     H    0.08211   0.53646   0.61240   1.000
    H89     H    0.58211   0.53646   0.61240   1.000
    H90     H    0.20408   0.35640   0.52367   1.000
    H91     H    0.70407   0.35640   0.52367   1.000
    H92     H    0.31666   0.43403   0.55262   1.000
    H93     H    0.81665   0.43402   0.55262   1.000
    H94     H    0.50775   0.40967   0.61480   1.000
    H95     H    0.00000   0.40967   0.61481   1.000
    H96     H    0.39597   0.33356   0.58440   1.000
    H97     H    0.89596   0.33355   0.58440   1.000
    H98     H    0.49672   0.29171   0.44650   1.000
    H99     H    0.99671   0.29171   0.44650   1.000
    H100    H    0.10913   0.36569   0.47690   1.000
    H101    H    0.60912   0.36569   0.47697   1.000
    H102    H    0.37769   0.23588   0.45751   1.000
    H103    H    0.87768   0.23588   0.45751   1.000
    H104    H    0.32785   0.31791   0.48983   1.000
    H105    H    0.82784   0.31791   0.48980   1.000
    H106    H    0.28880   0.07525   0.58419   1.000
    H107    H    0.78879   0.07525   0.58419   1.000
    H108    H    0.08668   0.03410   0.50924   1.000
    H109    H    0.58667   0.03411   0.50920   1.000
    H110    H    0.24906   0.22210   0.45142   1.000
    H111    H    0.74906   0.22210   0.45142   1.000
    H112    H    0.05453   0.83096   0.13365   1.000
    H113    H    0.55452   0.83096   0.13365   1.000
    H114    H    0.08932   0.05560   0.23434   1.000
    H115    H    0.58931   0.05559   0.23430   1.000
    C116    C    0.43728   0.80936   0.98716   1.000
    C117    C    0.93727   0.80936   0.98716   1.000
    C118    C    0.49807   0.81763   0.01668   1.000
    C119    C    0.99806   0.81762   0.01668   1.000
    C120    C    0.06172   0.85981   0.99951   1.000
    H121    H    0.39043   0.89143   0.23756   1.000
    H122    H    0.89042   0.89143   0.23756   1.000
    H123    H    0.17258   0.85547   0.12632   1.000
    H124    H    0.67258   0.85547   0.12632   1.000
    H125    H    0.12408   0.93381   0.09054   1.000
    H126    H    0.62408   0.93381   0.09054   1.000
    H127    H    0.30383   0.88843   0.14240   1.000
    H128    H    0.80382   0.88843   0.14241   1.000
    H129    H    0.41732   0.96176   0.11148   1.000
    H130    H    0.91731   0.96177   0.11148   1.000
    H131    H    0.29656   0.14397   0.02330   1.000
    H132    H    0.79655   0.14397   0.02337   1.000
    H133    H    0.18356   0.06622   0.05196   1.000
    H134    H    0.68355   0.06622   0.05197   1.000
    H135    H    0.99201   0.08835   0.11441   1.000
    H136    H    0.49200   0.08835   0.11440   1.000
    H137    H    0.10408   0.16481   0.08434   1.000
    H138    H    0.60407   0.16482   0.08434   1.000
    H139    H    0.00434   0.20946   0.94656   1.000
    H140    H    0.50433   0.20945   0.94650   1.000
    H141    H    0.39164   0.13542   0.97681   1.000
    H142    H    0.89163   0.13543   0.97681   1.000
    H143    H    0.12339   0.26415   0.95755   1.000
    H144    H    0.62339   0.26415   0.95755   1.000
    H145    H    0.17306   0.18230   0.99008   1.000
    H146    H    0.67305   0.18230   0.99007   1.000
    H147    H    0.21051   0.42420   0.08465   1.000
    H148    H    0.71050   0.42420   0.08465   1.000
    H149    H    0.41395   0.46551   0.01069   1.000
    H150    H    0.91394   0.46551   0.01069   1.000
    H151    H    0.25243   0.27809   0.95202   1.000
    H152    H    0.75242   0.27809   0.95202   1.000
    C153    C    0.46906   0.35414   0.31611   1.000
    C154    C    0.96905   0.35414   0.31611   1.000
    C155    C    0.03658   0.37481   0.33712   1.000
    C156    C    0.53658   0.37481   0.33712   1.000
    C157    C    0.07931   0.44930   0.31944   1.000
    C158    C    0.57931   0.44930   0.31944   1.000
    C159    C    0.05522   0.49998   0.27976   1.000
    C160    C    0.55521   0.49998   0.27976   1.000
    C161    C    0.48746   0.47970   0.25983   1.000
    C162    C    0.98745   0.47970   0.25983   1.000
    C163    C    0.44336   0.40740   0.27831   1.000
    C164    C    0.94335   0.40740   0.27831   1.000
    C165    C    0.16735   0.42889   0.38126   1.000
    C166    C    0.66734   0.42889   0.38126   1.000
    C167    C    0.23608   0.47384   0.39929   1.000
    C168    C    0.73607   0.47384   0.39929   1.000
    C169    C    0.30289   0.44577   0.38282   1.000
    C170    C    0.80288   0.44576   0.38283   1.000
    C171    C    0.36651   0.48767   0.40004   1.000
    C172    C    0.86650   0.48766   0.40004   1.000
    C173    C    0.36557   0.55953   0.43407   1.000
    C174    C    0.86557   0.55953   0.43407   1.000
    C175    C    0.29836   0.58708   0.45055   1.000
    C176    C    0.79835   0.58709   0.45054   1.000
    C177    C    0.23490   0.54443   0.43370   1.000
    C178    C    0.73489   0.54444   0.43370   1.000
    C179    C    0.43312   0.60447   0.45211   1.000
    C180    C    0.93311   0.60447   0.45210   1.000
    C181    C    0.99456   0.61450   0.42248   1.000
    C182    C    0.49455   0.61451   0.42248   1.000
    C183    C    0.05782   0.65725   0.43962   1.000
    C184    C    0.55781   0.65726   0.43960   1.000
    C185    C    0.06212   0.69085   0.48712   1.000
    C186    C    0.56211   0.69085   0.48712   1.000
    C187    C    0.00112   0.68182   0.51662   1.000
    O188    O    0.14450   0.47676   0.33776   1.000
    C189    C    0.63100   0.73409   0.50646   1.000
    C190    C    0.22341   0.84461   0.48072   1.000
    C191    C    0.72340   0.84461   0.48072   1.000
    C192    C    0.24673   0.90915   0.44560   1.000
    C193    C    0.74672   0.90915   0.44560   1.000
    C194    C    0.31542   0.95124   0.44891   1.000
    C195    C    0.81541   0.95124   0.44891   1.000
    C196    C    0.36025   0.93220   0.48803   1.000
    C197    C    0.86024   0.93220   0.48803   1.000
    C198    C    0.33583   0.87077   0.52381   1.000
    C199    C    0.83582   0.87077   0.52381   1.000
    C200    C    0.26776   0.82574   0.52002   1.000
    C201    C    0.76775   0.82574   0.52002   1.000
    C202    C    0.03143   0.14573   0.81620   1.000
    C203    C    0.53142   0.14573   0.81620   1.000
    C204    C    0.46402   0.12493   0.83756   1.000
    C205    C    0.96401   0.12493   0.83756   1.000
    C206    C    0.42122   0.05053   0.82010   1.000
    C207    C    0.92121   0.05053   0.82010   1.000
    C208    C    0.44518   0.99997   0.78030   1.000
    C209    C    0.94517   0.99997   0.78030   1.000
    C210    C    0.01286   0.02035   0.76003   1.000
    C211    C    0.51286   0.02035   0.76003   1.000
    C212    C    0.05702   0.09262   0.77829   1.000
    C213    C    0.55702   0.09262   0.77829   1.000
    C214    C    0.33330   0.07135   0.88218   1.000
    C215    C    0.83330   0.07135   0.88218   1.000
    C216    C    0.26431   0.02681   0.90022   1.000
    C217    C    0.76430   0.02682   0.90020   1.000
    C218    C    0.19774   0.05553   0.88384   1.000
    C219    C    0.69773   0.05554   0.88384   1.000
    C220    C    0.13388   0.01361   0.90088   1.000
    C221    C    0.63387   0.01361   0.90088   1.000
    C222    C    0.13437   0.94108   0.93463   1.000
    C223    C    0.63436   0.94108   0.93463   1.000
    C224    C    0.20135   0.91294   0.95105   1.000
    C225    C    0.70134   0.91294   0.95100   1.000
    C226    C    0.26503   0.95566   0.93442   1.000
    C227    C    0.76502   0.95567   0.93442   1.000
    C228    C    0.06662   0.89598   0.95244   1.000
    C229    C    0.56661   0.89598   0.95245   1.000
    C230    C    0.50538   0.88672   0.92279   1.000
    C231    C    0.00000   0.88672   0.92279   1.000
    C232    C    0.44195   0.84376   0.93977   1.000
    C233    C    0.94194   0.84376   0.93977   1.000
    C234    C    0.56171   0.85982   0.99951   1.000
    C235    C    0.36825   0.76585   0.00638   1.000
    C236    C    0.86825   0.76585   0.00638   1.000
    C237    C    0.27627   0.65541   0.98028   1.000
    C238    C    0.77626   0.65541   0.98020   1.000
    C239    C    0.25346   0.59123   0.94501   1.000
    C240    C    0.75345   0.59123   0.94501   1.000
    C241    C    0.18469   0.54921   0.94800   1.000
    C242    C    0.68468   0.54921   0.94800   1.000
    C243    C    0.13915   0.56814   0.98686   1.000
    C244    C    0.63914   0.56814   0.98680   1.000
    C245    C    0.16297   0.62935   0.02275   1.000
    C246    C    0.66296   0.62934   0.02275   1.000
    C247    C    0.23118   0.67422   0.01934   1.000
    C248    C    0.73118   0.67422   0.01934   1.000
    C249    C    0.03093   0.64584   0.68387   1.000
    C250    C    0.53092   0.64584   0.68387   1.000
    C251    C    0.46341   0.62516   0.66286   1.000
    C252    C    0.96340   0.62516   0.66286   1.000
    C253    C    0.42067   0.55068   0.68054   1.000
    C254    C    0.92067   0.55068   0.68054   1.000
    C255    C    0.44477   0.50000   0.72022   1.000
    C256    C    0.94477   0.50000   0.72022   1.000
    C257    C    0.01253   0.52029   0.74015   1.000
    C258    C    0.51252   0.52029   0.74015   1.000
    C259    C    0.05663   0.59258   0.72167   1.000
    C260    C    0.55662   0.59258   0.72167   1.000
    C261    C    0.33264   0.57108   0.61872   1.000
    C262    C    0.83263   0.57108   0.61872   1.000
    C263    C    0.26391   0.52613   0.60069   1.000
    C264    C    0.76390   0.52613   0.60069   1.000
    C265    C    0.19709   0.55420   0.61716   1.000
    C266    C    0.69709   0.55421   0.61710   1.000
    C267    C    0.13348   0.51230   0.59994   1.000
    C268    C    0.63348   0.51230   0.59994   1.000
    C269    C    0.13442   0.44043   0.56592   1.000
    C270    C    0.63441   0.44043   0.56590   1.000
    C271    C    0.20164   0.41288   0.54944   1.000
    C272    C    0.70163   0.41288   0.54944   1.000
    C273    C    0.26509   0.45554   0.56629   1.000
    C274    C    0.76508   0.45553   0.56629   1.000
    C275    C    0.06688   0.39549   0.54787   1.000
    C276    C    0.56687   0.39549   0.54787   1.000
    C277    C    0.50544   0.38546   0.57750   1.000
    C278    C    0.00000   0.38546   0.57750   1.000
    C279    C    0.44217   0.34271   0.56037   1.000
    C280    C    0.94216   0.34271   0.56037   1.000
    C281    C    0.43787   0.30912   0.51286   1.000
    C282    C    0.93787   0.30912   0.51286   1.000
    C283    C    0.49887   0.31815   0.48336   1.000
    C284    C    0.99886   0.31815   0.48336   1.000
    C285    C    0.06236   0.36020   0.50066   1.000
    C286    C    0.56235   0.36020   0.50066   1.000
    C287    C    0.36898   0.26588   0.49352   1.000
    C288    C    0.86897   0.26588   0.49352   1.000
    C289    C    0.27658   0.15536   0.51926   1.000
    C290    C    0.77657   0.15536   0.51926   1.000
    C291    C    0.25326   0.09082   0.55437   1.000
    C292    C    0.75325   0.09082   0.55437   1.000
    C293    C    0.18457   0.04873   0.55107   1.000
    C294    C    0.68456   0.04873   0.55107   1.000
    C295    C    0.13974   0.06777   0.51195   1.000
    C296    C    0.63973   0.06777   0.51195   1.000
    C297    C    0.16416   0.12920   0.47617   1.000
    C298    C    0.66415   0.12920   0.47617   1.000
    C299    C    0.23223   0.17423   0.47996   1.000
    C300    C    0.73222   0.17423   0.47996   1.000
    C301    C    0.46856   0.85425   0.18379   1.000
    C302    C    0.96855   0.85425   0.18379   1.000
    C303    C    0.03597   0.87505   0.16243   1.000
    C304    C    0.53597   0.87505   0.16243   1.000
    C305    C    0.07877   0.94945   0.17989   1.000
    C306    C    0.57877   0.94945   0.17989   1.000
    C307    C    0.05481   0.00001   0.21968   1.000
    C308    C    0.55480   0.00001   0.21969   1.000
    C309    C    0.48712   0.97963   0.23996   1.000
    C310    C    0.98712   0.97963   0.23996   1.000
    C311    C    0.44296   0.90736   0.22170   1.000
    C312    C    0.94296   0.90736   0.22170   1.000
    C313    C    0.16669   0.92862   0.11781   1.000
    C314    C    0.66668   0.92862   0.11780   1.000
    C315    C    0.23569   0.97316   0.09970   1.000
    C316    C    0.73568   0.97316   0.09977   1.000
    C317    C    0.30226   0.94444   0.11615   1.000
    C318    C    0.80225   0.94444   0.11610   1.000
    C319    C    0.36611   0.98636   0.09911   1.000
    C320    C    0.86611   0.98637   0.09911   1.000
    C321    C    0.36562   0.05889   0.06536   1.000
    C322    C    0.86562   0.05890   0.06536   1.000
    C323    C    0.29864   0.08703   0.04893   1.000
    C324    C    0.79863   0.08703   0.04894   1.000
    C325    C    0.23496   0.04430   0.06557   1.000
    C326    C    0.73495   0.04431   0.06557   1.000
    C327    C    0.43337   0.10399   0.04754   1.000
    C328    C    0.93336   0.10400   0.04754   1.000
    C329    C    0.99462   0.11325   0.07720   1.000
    C330    C    0.49461   0.11325   0.07700   1.000
    C331    C    0.05805   0.15621   0.06022   1.000
    C332    C    0.55804   0.15622   0.06022   1.000
    C333    C    0.06271   0.19062   0.01283   1.000
    C334    C    0.56271   0.19062   0.01283   1.000
    C335    C    0.00192   0.18236   0.98331   1.000
    C336    C    0.50191   0.18235   0.98331   1.000
    C337    C    0.43827   0.14016   0.00048   1.000
    C338    C    0.93826   0.14017   0.00048   1.000
    C339    C    0.13174   0.23412   0.99361   1.000
    C340    C    0.63173   0.23412   0.99361   1.000
    C341    C    0.22372   0.34458   0.01970   1.000
    C342    C    0.72371   0.34458   0.01970   1.000
    C343    C    0.24652   0.40876   0.05497   1.000
    C344    C    0.74652   0.40876   0.05497   1.000
    C345    C    0.31529   0.45078   0.05198   1.000
    C346    C    0.81528   0.45078   0.05198   1.000
    C347    C    0.36083   0.43186   0.01312   1.000
    C348    C    0.86082   0.43186   0.01312   1.000
    C349    C    0.33701   0.37065   0.97724   1.000
    C350    C    0.83700   0.37065   0.97724   1.000
    C351    C    0.26880   0.32577   0.98065   1.000
    C352    C    0.76880   0.32577   0.98065   1.000
    O353    O    0.64449   0.47676   0.33776   1.000
    O354    O    0.15653   0.80464   0.47300   1.000
    O355    O    0.65652   0.80464   0.47300   1.000
    O356    O    0.35610   0.02311   0.83878   1.000
    O357    O    0.85610   0.02310   0.83879   1.000
    O358    O    0.34334   0.69524   0.97302   1.000
    O359    O    0.84333   0.69524   0.97302   1.000
    O360    O    0.35549   0.52322   0.66223   1.000
    O361    O    0.85548   0.52322   0.66223   1.000
    O362    O    0.34346   0.19533   0.52690   1.000
    O363    O    0.84345   0.19533   0.52690   1.000
    O364    O    0.14389   0.97687   0.16120   1.000
    O365    O    0.64388   0.97687   0.16121   1.000
    O366    O    0.15665   0.30475   0.02697   1.000
    O367    O    0.65665   0.30474   0.02697   1.000
loop_
    _geom_bond_atom_site_label_1
    _geom_bond_atom_site_label_2
    _geom_bond_distance
    _geom_bond_site_symmetry_2
    _ccdc_geom_bond_type
    C338   C328      1.40406      .   S
    C338   H142      1.08856  1_554   S
    C338   C335      1.39271  1_654   S
    C337   C327      1.40406      .   S
    C337   H141      1.08856  1_554   S
    C337   C336      1.39245  1_554   S
    C236   H65       1.10480      .   S
    C236   H63       1.10204      .   S
    C236   O359      1.44284  1_554   S
    C236   C117      1.50303  1_554   S
    C235   H64       1.10478      .   S
    C235   H62       1.10205      .   S
    C235   O358      1.44282  1_554   S
    C235   C116      1.50304  1_554   S
    H150   C348      1.08604      .   S
    H149   C347      1.08606      .   S
    C334   C332      1.40307      .   S
    C334   C336      1.39831  1_554   S
    C334   C340      1.50303  1_554   S
    C333   C331      1.40308      .   S
    C333   C335      1.39832  1_554   S
    C333   C339      1.50303  1_554   S
    C348   C346      1.40237      .   S
    C348   C350      1.39339  1_554   S
    C347   C345      1.40236      .   S
    C347   C349      1.39338  1_554   S
    C118   H58       1.08948      .   S
    C118   C116      1.39828  1_554   S
    C118   C234      1.39247  1_554   S
    C119   H59       1.08949      .   S
    C119   C117      1.39830  1_554   S
    C119   C120      1.39271  1_654   S
    C248   C246      1.40510      .   S
    C248   H71       1.08788      .   S
    C248   C238      1.40282  1_554   S
    C247   C245      1.40510      .   S
    C247   H70       1.08787      .   S
    C247   C237      1.40111  1_554   S
    C342   O367      1.36763      .   S
    C342   C344      1.40381      .   S
    C342   C352      1.40088  1_554   S
    C341   O366      1.36763      .   S
    C341   C343      1.40382      .   S
    C341   C351      1.40088  1_554   S
    C246   C244      1.39476  1_554   S
    C245   C243      1.39358  1_554   S
    H61    C234      1.08853  1_554   S
    H60    C120      1.08854  1_554   S
    H131   C323      1.09105      .   S
    H132   C324      1.08998      .   S
    O366   C339      1.44287  1_554   S
    O367   C340      1.44286  1_554   S
    C328   C322      1.47914      .   S
    C328   C329      1.40829      .   S
    C327   C321      1.47914      .   S
    C327   C330      1.40483      .   S
    C323   C321      1.40633      .   S
    C323   C325      1.39126      .   S
    C324   C322      1.40626      .   S
    C324   C326      1.39116      .   S
    H133   C325      1.09001      .   S
    H134   C326      1.08992      .   S
    C345   C343      1.39662      .   S
    C346   C344      1.39661      .   S
    C344   H148      1.08856      .   S
    C343   H147      1.08856      .   S
    C331   C329      1.39196  1_455   S
    C331   H137      1.09036      .   S
    C332   C330      1.39012      .   S
    C332   H138      1.09035      .   S
    C321   C319      1.40749  1_545   S
    C322   C320      1.40750  1_545   S
    C326   C316      1.40105  1_545   S
    C325   C315      1.39972  1_545   S
    C330   H136      1.09548      .   S
    C329   H135      1.09052      .   S
    H125   C313      1.10088      .   S
    H126   C314      1.10070      .   S
    C319   H129      1.08905      .   S
    C319   C317      1.39299      .   S
    C320   H130      1.08905      .   S
    C320   C318      1.39253      .   S
    C315   C317      1.40238      .   S
    C315   C313      1.49795      .   S
    C316   C318      1.40131      .   S
    C316   C314      1.49723      .   S
    C318   H128      1.09259      .   S
    C317   H127      1.09148      .   S
    C314   H124      1.09910      .   S
    C314   O365      1.46246      .   S
    C313   H123      1.09902      .   S
    C313   O364      1.46203      .   S
    H113   C304      1.08763      .   S
    H112   C303      1.08764      .   S
    O364   C305      1.36041      .   S
    O365   C306      1.36032      .   S
    C304   C306      1.40165      .   S
    C304   C301      1.40672      .   S
    C303   C305      1.40165      .   S
    C303   C302      1.40697  1_455   S
    C305   C307      1.40652  1_565   S
    C306   C308      1.40674  1_565   S
    C301   C311      1.39791      .   S
    C302   C312      1.39793      .   S
    C307   H114      1.08906      .   S
    C307   C310      1.39830  1_445   S
    C308   H115      1.08855      .   S
    C308   C309      1.39793  1_545   S
    C312   H122      1.08684      .   S
    C312   C310      1.40055      .   S
    C311   H121      1.08685      .   S
    C311   C309      1.40055      .   S
    C161   C163      1.40017      .   S
    C161   C160      1.39763      .   S
    C162   C164      1.40018      .   S
    C162   C159      1.39789  1_655   S
    H4     C163      1.08676      .   S
    H5     C164      1.08675      .   S
    H3     C160      1.08904      .   S
    H2     C159      1.08905      .   S
    C164   C154      1.39791      .   S
    C163   C153      1.39792      .   S
    C159   C157      1.40622      .   S
    C160   C158      1.40622      .   S
    C154   C155      1.40719  1_655   S
    C153   C156      1.40693      .   S
    C158   C156      1.40191      .   S
    C158   O353      1.36028      .   S
    C157   C155      1.40191      .   S
    C157   O188      1.36028      .   S
    C155   H0        1.08764      .   S
    C156   H1        1.08764      .   S
    O353   C166      1.46243      .   S
    O188   C165      1.46244      .   S
    H10    C169      1.09171      .   S
    H11    C170      1.09158      .   S
    H6     C165      1.09897      .   S
    H7     C166      1.09896      .   S
    C165   C167      1.49792      .   S
    C165   H8        1.10103      .   S
    C166   C168      1.49792      .   S
    C166   H9        1.10103      .   S
    C169   C167      1.40191      .   S
    C169   C171      1.39316      .   S
    C170   C168      1.40185      .   S
    C170   C172      1.39306      .   S
    H19    C182      1.09041      .   S
    H18    C181      1.09043      .   S
    H13    C172      1.08907      .   S
    H12    C171      1.08905      .   S
    C168   C178      1.40101      .   S
    C167   C177      1.40093      .   S
    C172   C174      1.40737      .   S
    C171   C173      1.40731      .   S
    H21    C184      1.09055      .   S
    H20    C183      1.09041      .   S
    H30    C192      1.08817      .   S
    H31    C193      1.08815      .   S
    C181   C183      1.39201  1_655   S
    C181   C180      1.40800      .   S
    C182   C184      1.39183      .   S
    C182   C179      1.40791      .   S
    C177   H16       1.08948      .   S
    C177   C175      1.39157      .   S
    C178   H17       1.09007      .   S
    C178   C176      1.39149      .   S
    C174   C176      1.40628      .   S
    C174   C180      1.47941      .   S
    C173   C175      1.40635      .   S
    C173   C179      1.47949      .   S
    C184   C186      1.40340      .   S
    C183   C185      1.40292      .   S
    C192   C194      1.39678      .   S
    C192   C190      1.40410      .   S
    C193   C195      1.39680      .   S
    C193   C191      1.40409      .   S
    H98    C283      1.08979      .   S
    H99    C284      1.08978      .   S
    C195   C197      1.40272      .   S
    C194   C196      1.40273      .   S
    C176   H15       1.09004      .   S
    C175   H14       1.08998      .   S
    H111   C300      1.08782      .   S
    H110   C299      1.08783      .   S
    C180   C86       1.40465      .   S
    C179   C85       1.40436      .   S
    H103   C288      1.10196      .   S
    H102   C287      1.10196      .   S
    O355   C191      1.36827      .   S
    O355   C189      1.44438      .   S
    O354   C190      1.36827      .   S
    O354   C87       1.44437      .   S
    C297   C299      1.40497      .   S
    C297   C295      1.39384      .   S
    C298   C300      1.40499      .   S
    C298   C296      1.39383      .   S
    H100   C285      1.08990      .   S
    H101   C286      1.08875      .   S
    C300   C290      1.40071      .   S
    C299   C289      1.40071      .   S
    C190   C200      1.40072      .   S
    C191   C201      1.40072      .   S
    C284   C285      1.39296  1_655   S
    C284   C282      1.39835      .   S
    C283   C286      1.39271      .   S
    C283   C281      1.39835      .   S
    C186   C189      1.50332      .   S
    C186   C84       1.39834      .   S
    C185   C87       1.50332      .   S
    C185   C187      1.39836      .   S
    C196   H32       1.08606      .   S
    C196   C198      1.39384      .   S
    C197   H33       1.08607      .   S
    C197   C199      1.39383      .   S
    H105   C288      1.10502      .   S
    H104   C287      1.10493      .   S
    C287   C281      1.50331      .   S
    C287   O362      1.44290      .   S
    C288   C282      1.50331      .   S
    C288   O363      1.44289      .   S
    C86    C187      1.39296  1_655   S
    C86    H25       1.08875      .   S
    C85    C84       1.39272      .   S
    C85    H24       1.08873      .   S
    C285   C275      1.40436      .   S
    C286   C276      1.40436      .   S
    C87    H28       1.10494      .   S
    C87    H26       1.10192      .   S
    C189   H29       1.10494      .   S
    C189   H27       1.10192      .   S
    H109   C296      1.08614      .   S
    H108   C295      1.08607      .   S
    C295   C293      1.40270      .   S
    C296   C294      1.40272      .   S
    C281   C279      1.40314      .   S
    C282   C280      1.40314      .   S
    C187   H22       1.08981      .   S
    C84    H23       1.08978      .   S
    C289   O362      1.36792      .   S
    C289   C291      1.40390      .   S
    C290   O363      1.36793      .   S
    C290   C292      1.40390      .   S
    C201   C199      1.40499      .   S
    C201   H35       1.08782      .   S
    C200   C198      1.40499      .   S
    C200   H34       1.08782      .   S
    H91    C272      1.09005      .   S
    H90    C271      1.09003      .   S
    C276   C270      1.47940      .   S
    C276   C277      1.40792      .   S
    C275   C269      1.47960      .   S
    C275   C278      1.49097      .   S
    C271   C269      1.40637      .   S
    C271   C273      1.39158      .   S
    C272   C270      1.40620      .   S
    C272   C274      1.39159      .   S
    C294   C292      1.39677      .   S
    C293   C291      1.39677      .   S
    H92    C273      1.09017      .   S
    H93    C274      1.09016      .   S
    C291   H106      1.08836      .   S
    C292   H107      1.08836      .   S
    C280   C278      1.30943  1_655   S
    C280   H97       1.08939      .   S
    C279   C277      1.39191      .   S
    C279   H96       1.08939      .   S
    C270   C268      1.40758      .   S
    C269   C267      1.40719      .   S
    C274   C264      1.40084      .   S
    C273   C263      1.40081      .   S
    C278   H95       1.09034      .   S
    C277   H94       1.09041      .   S
    H80    C261      1.10103      .   S
    H81    C262      1.10105      .   S
    C267   H88       1.08907      .   S
    C267   C265      1.39315      .   S
    C268   H89       1.08908      .   S
    C268   C266      1.39259      .   S
    C264   C266      1.40141      .   S
    C264   C262      1.49793      .   S
    C263   C265      1.40195      .   S
    C263   C261      1.49793      .   S
    C266   H83       1.09253      .   S
    C265   H82       1.09139      .   S
    C261   H78       1.09899      .   S
    C261   O360      1.46261      .   S
    C262   H79       1.09898      .   S
    C262   O361      1.46261      .   S
    H73    C252      1.08765      .   S
    H72    C251      1.08765      .   S
    O361   C254      1.36020      .   S
    O360   C253      1.36020      .   S
    C252   C254      1.40190      .   S
    C252   C249      1.40716  1_655   S
    C251   C253      1.40190      .   S
    C251   C250      1.40693      .   S
    C254   C256      1.40622      .   S
    C253   C255      1.40623      .   S
    C250   C260      1.39794      .   S
    C249   C259      1.39795      .   S
    C256   H75       1.08904      .   S
    C256   C257      1.39787  1_655   S
    C255   H74       1.08904      .   S
    C255   C258      1.39762      .   S
    C260   H77       1.08586      .   S
    C260   C258      1.40015      .   S
    C259   H76       1.08585      .   S
    C259   C257      1.40016      .   S
    C210   C212      1.40055      .   S
    C210   C209      1.39817  1_445   S
    C211   C213      1.40055      .   S
    C211   C208      1.39791  1_545   S
    H40    C212      1.08684      .   S
    H41    C213      1.08683      .   S
    H38    C208      1.08906      .   S
    H39    C209      1.08897      .   S
    C213   C203      1.39792      .   S
    C212   C202      1.39790      .   S
    C209   C207      1.40672  1_565   S
    C208   C206      1.40673  1_565   S
    C203   C204      1.40668      .   S
    C202   C205      1.40694  1_455   S
    C207   C205      1.40166      .   S
    C207   O357      1.36040      .   S
    C206   C204      1.40166      .   S
    C206   O356      1.36029      .   S
    C205   H37       1.08763      .   S
    C204   H36       1.08763      .   S
    O356   C214      1.46220      .   S
    O357   C215      1.46199      .   S
    H47    C219      1.09150      .   S
    H46    C218      1.09151      .   S
    H43    C215      1.09905      .   S
    H42    C214      1.09905      .   S
    C215   C217      1.49714      .   S
    C215   H45       1.10089      .   S
    C214   C216      1.49733      .   S
    C214   H44       1.10091      .   S
    C218   C216      1.40175      .   S
    C218   C220      1.39300      .   S
    C219   C217      1.40156      .   S
    C219   C221      1.39300      .   S
    H54    C230      1.09051      .   S
    H55    C231      1.09025      .   S
    H48    C220      1.08904      .   S
    H49    C221      1.08906      .   S
    C217   C227      1.40143  1_545   S
    C216   C226      1.40108  1_545   S
    C220   C222      1.40753  1_545   S
    C221   C223      1.40751  1_545   S
    H67    C240      1.08838      .   S
    H66    C239      1.08837      .   S
    H57    C233      1.09120      .   S
    H56    C232      1.09034      .   S
    C230   C232      1.39196      .   S
    C230   C229      1.40801      .   S
    C231   C233      1.31038  1_455   S
    C231   C228      1.48999      .   S
    C226   H52       1.08993      .   S
    C226   C224      1.39117      .   S
    C227   H53       1.09000      .   S
    C227   C225      1.39071      .   S
    C223   C225      1.40579      .   S
    C223   C229      1.47917      .   S
    C222   C224      1.40624      .   S
    C222   C228      1.47906      .   S
    C233   C117      1.40306      .   S
    C232   C116      1.40305      .   S
    C240   C242      1.39661      .   S
    C240   C238      1.40227      .   S
    C239   C241      1.39659      .   S
    C239   C237      1.40381      .   S
    H140   C336      1.09104      .   S
    H139   C335      1.08950      .   S
    C241   C243      1.40243      .   S
    C242   C244      1.40115      .   S
    C225   H51       1.09088      .   S
    C224   H50       1.09001      .   S
    H152   C352      1.08790      .   S
    H151   C351      1.08790      .   S
    C228   C120      1.40430      .   S
    C229   C234      1.40403      .   S
    H143   C339      1.10201      .   S
    H144   C340      1.10202      .   S
    O358   C237      1.36759      .   S
    O359   C238      1.36727      .   S
    C349   C351      1.40511      .   S
    C350   C352      1.40510      .   S
    C244   H69       1.08615      .   S
    C243   H68       1.08604      .   S
    H146   C340      1.10482      .   S
    H145   C339      1.10480      .   S
