# CIF file generated by openbabel 2.4.90, see http://openbabel.sf.net
data_I
_chemical_name_common ''
_cell_length_a 18.626
_cell_length_b 14.536
_cell_length_c 27.649
_cell_angle_alpha 89.935
_cell_angle_beta 89.867
_cell_angle_gamma 92.543
_space_group_name_H-M_alt 'P 1'
_space_group_name_Hall 'P 1'
loop_
    _symmetry_equiv_pos_as_xyz
    x,y,z
loop_
    _atom_site_label
    _atom_site_type_symbol
    _atom_site_fract_x
    _atom_site_fract_y
    _atom_site_fract_z
    _atom_site_occupancy
    N0      N    0.90020   0.11225   0.07717   1.000
    N1      N    0.40020   0.11224   0.07716   1.000
    N2      N    0.59979   0.88774   0.92282   1.000
    N3      N    0.09950   0.88773   0.92281   1.000
    N4      N    0.40014   0.61250   0.42264   1.000
    N5      N    0.59984   0.38747   0.57734   1.000
    N6      N    0.90014   0.61250   0.42264   1.000
    N7      N    0.09956   0.38747   0.57734   1.000
    Zr8     Zr   0.54960   0.38152   0.86252   1.000
    O9      O    0.34004   0.30928   0.93953   1.000
    O10     O    0.43099   0.41097   0.76590   1.000
    O11     O    0.43783   0.20937   0.86814   1.000
    O12     O    0.71746   0.54199   0.89419   1.000
    Zr13    Zr   0.04893   0.88142   0.63756   1.000
    O14     O    0.93078   0.91100   0.73420   1.000
    O15     O    0.83928   0.80931   0.56077   1.000
    O16     O    0.93748   0.70927   0.63194   1.000
    O17     O    0.21713   0.04172   0.60565   1.000
    Zr18    Zr   0.54893   0.88142   0.63751   1.000
    O19     O    0.43740   0.70927   0.63191   1.000
    O20     O    0.33929   0.80931   0.56074   1.000
    O21     O    0.43071   0.91100   0.73418   1.000
    O22     O    0.71705   0.04172   0.60562   1.000
    Zr23    Zr   0.45105   0.11856   0.36241   1.000
    O24     O    0.28286   0.95826   0.39433   1.000
    O25     O    0.56251   0.29070   0.36804   1.000
    O26     O    0.56920   0.08898   0.26577   1.000
    O27     O    0.66063   0.19066   0.43921   1.000
    Zr28    Zr   0.95037   0.61846   0.13745   1.000
    O29     O    0.15994   0.69071   0.06044   1.000
    O30     O    0.06891   0.58901   0.23406   1.000
    O31     O    0.06207   0.79061   0.13184   1.000
    O32     O    0.78244   0.45800   0.10578   1.000
    Zr33    Zr   0.04961   0.38152   0.86252   1.000
    O34     O    0.84004   0.30928   0.93953   1.000
    O35     O    0.21754   0.54199   0.89419   1.000
    O36     O    0.93107   0.41097   0.76590   1.000
    O37     O    0.93791   0.20937   0.86814   1.000
    Zr38    Zr   0.45038   0.61846   0.13745   1.000
    O39     O    0.56892   0.58901   0.23406   1.000
    O40     O    0.56207   0.79061   0.13184   1.000
    O41     O    0.65986   0.69071   0.06044   1.000
    O42     O    0.28244   0.45800   0.10579   1.000
    Zr43    Zr   0.95105   0.11856   0.36241   1.000
    O44     O    0.06250   0.29070   0.36804   1.000
    O45     O    0.06920   0.08898   0.26577   1.000
    O46     O    0.16070   0.19066   0.43920   1.000
    O47     O    0.78286   0.95826   0.39432   1.000
loop_
    _geom_bond_atom_site_label_1
    _geom_bond_atom_site_label_2
    _geom_bond_distance
    _geom_bond_site_symmetry_2
    _ccdc_geom_bond_type
    Zr8    O9        4.52391      .   S
    N0     O9        9.35691  1_654   S
    Zr8    O10       3.50833      .   S
    N7     O10       8.08551      .   S
    Zr8    O11       3.18678      .   S
    N3     O11       7.82193  1_565   S
    Zr8    O12       3.91828      .   S
    N3     O12       8.56623  1_455   S
    Zr13   O14       3.49662  1_455   S
    N2     O14       8.06106      .   S
    Zr13   O15       4.53165  1_455   S
    N4     O15       9.36849      .   S
    Zr13   O16       3.18382  1_455   S
    N5     O16       7.82041      .   S
    Zr13   O17       3.91880  1_565   S
    N5     O17       8.57167      .   S
    Zr18   O19       3.18460      .   S
    N7     O19       7.82333      .   S
    Zr18   O20       4.53123      .   S
    N6     O20       9.36816  1_655   S
    Zr18   O21       3.49814      .   S
    N3     O21       8.06445      .   S
    Zr18   O22       3.91761  1_565   S
    N7     O22       8.56843  1_455   S
    Zr23   O24       3.91882  1_545   S
    N6     O24       8.57174  1_655   S
    Zr23   O25       3.18380      .   S
    N6     O25       7.82031      .   S
    Zr23   O26       3.49663      .   S
    N0     O26       8.06085      .   S
    Zr23   O27       4.53047      .   S
    N7     O27       9.36497  1_455   S
    Zr28   O29       4.52386  1_655   S
    N2     O29       9.35682  1_556   S
    Zr28   O30       3.50747  1_655   S
    N4     O30       8.08261      .   S
    Zr28   O31       3.18590  1_655   S
    N1     O31       7.81880  1_545   S
    Zr28   O32       3.91933      .   S
    N1     O32       8.56945      .   S
    Zr33   O34       4.52393  1_455   S
    N1     O34       9.35684  1_554   S
    Zr33   O35       3.91935      .   S
    N2     O35       8.56944      .   S
    Zr33   O36       3.50749  1_455   S
    N5     O36       8.08250      .   S
    Zr33   O37       3.18594  1_455   S
    N2     O37       7.81882  1_565   S
    Zr38   O39       3.50749      .   S
    N6     O39       8.08259      .   S
    Zr38   O40       3.18591      .   S
    N0     O40       7.81873  1_545   S
    Zr38   O41       4.52266      .   S
    N3     O41       9.35336  1_456   S
    Zr38   O42       3.91931      .   S
    N0     O42       8.56947  1_655   S
    Zr43   O44       3.18380  1_655   S
    N4     O44       7.82038      .   S
    Zr43   O45       3.49660  1_655   S
    N1     O45       8.06094      .   S
    Zr43   O46       4.53157  1_655   S
    N5     O46       9.36858      .   S
    Zr43   O47       3.91884  1_545   S
    N4     O47       8.57169      .   S
