# CIF file generated by openbabel 2.4.90, see http://openbabel.sf.net
data_I
_chemical_name_common ''
_cell_length_a 18.626
_cell_length_b 14.536
_cell_length_c 27.649
_cell_angle_alpha 89.935
_cell_angle_beta 89.867
_cell_angle_gamma 92.543
_space_group_name_H-M_alt 'P 1'
_space_group_name_Hall 'P 1'
loop_
    _symmetry_equiv_pos_as_xyz
    x,y,z
loop_
    _atom_site_label
    _atom_site_type_symbol
    _atom_site_fract_x
    _atom_site_fract_y
    _atom_site_fract_z
    _atom_site_occupancy
    C0      C    0.34941   0.12076   0.33368   1.000
    C1      C    0.84940   0.12076   0.33368   1.000
    C2      C    0.49675   0.10572   0.37892   1.000
    C3      C    0.99674   0.10572   0.37892   1.000
    C4      C    0.15067   0.37931   0.83348   1.000
    C5      C    0.65067   0.37931   0.83348   1.000
    C6      C    0.00333   0.39409   0.87905   1.000
    C7      C    0.50332   0.39409   0.87905   1.000
    C8      C    0.15058   0.87922   0.66630   1.000
    C9      C    0.65057   0.87922   0.66630   1.000
    C10     C    0.00324   0.89426   0.62107   1.000
    C11     C    0.50323   0.89426   0.62107   1.000
    C12     C    0.34931   0.62068   0.16651   1.000
    C13     C    0.84931   0.62068   0.16651   1.000
    C14     C    0.49666   0.60589   0.12093   1.000
    C15     C    0.99665   0.60589   0.12093   1.000
    C16     C    0.05532   0.33059   0.36578   1.000
    C17     C    0.55531   0.33059   0.36578   1.000
    C18     C    0.08968   0.55561   0.26493   1.000
    C19     C    0.58967   0.55561   0.26493   1.000
    C20     C    0.39077   0.39156   0.26270   1.000
    C21     C    0.89076   0.39156   0.26270   1.000
    C22     C    0.17361   0.35578   0.37292   1.000
    C23     C    0.67360   0.35578   0.37292   1.000
    C24     C    0.12456   0.43384   0.40855   1.000
    C25     C    0.62455   0.43384   0.40855   1.000
    C26     C    0.30485   0.39017   0.35640   1.000
    C27     C    0.80484   0.39016   0.35642   1.000
    C28     C    0.41788   0.46351   0.38758   1.000
    C29     C    0.91787   0.46350   0.38758   1.000
    C30     C    0.29591   0.64355   0.47632   1.000
    C31     C    0.79590   0.64357   0.47631   1.000
    C32     C    0.18334   0.56594   0.44730   1.000
    C33     C    0.68333   0.56595   0.44736   1.000
    C34     C    0.99225   0.59028   0.38518   1.000
    C35     C    0.49224   0.59030   0.38518   1.000
    C36     C    0.10403   0.66640   0.41553   1.000
    C37     C    0.60402   0.66641   0.41550   1.000
    C38     C    0.00327   0.70827   0.55348   1.000
    C39     C    0.50326   0.70825   0.55348   1.000
    C40     C    0.39087   0.63427   0.52301   1.000
    C41     C    0.89086   0.63428   0.52301   1.000
    C42     C    0.12231   0.76408   0.54247   1.000
    C43     C    0.62230   0.76408   0.54247   1.000
    C44     C    0.17215   0.68206   0.51015   1.000
    C45     C    0.67214   0.68206   0.51015   1.000
    C46     C    0.21119   0.92472   0.41579   1.000
    C47     C    0.71118   0.92472   0.41579   1.000
    C48     C    0.41331   0.96586   0.49074   1.000
    C49     C    0.91331   0.96587   0.49074   1.000
    C50     C    0.25093   0.77788   0.54856   1.000
    C51     C    0.75092   0.77788   0.54856   1.000
    C52     C    0.44546   0.16902   0.86634   1.000
    C53     C    0.94546   0.16902   0.86634   1.000
    C54     C    0.41067   0.94439   0.76564   1.000
    C55     C    0.91066   0.94438   0.76565   1.000
    C56     C    0.10956   0.10856   0.76243   1.000
    C57     C    0.60956   0.10856   0.76243   1.000
    C58     C    0.32741   0.14450   0.87367   1.000
    C59     C    0.82740   0.14450   0.87367   1.000
    C60     C    0.37591   0.06615   0.90945   1.000
    C61     C    0.87590   0.06616   0.90945   1.000
    C62     C    0.19617   0.11155   0.85759   1.000
    C63     C    0.69616   0.11155   0.85759   1.000
    C64     C    0.08267   0.03821   0.88851   1.000
    C65     C    0.58266   0.03821   0.88851   1.000
    C66     C    0.20343   0.85599   0.97662   1.000
    C67     C    0.70342   0.85600   0.97662   1.000
    C68     C    0.31643   0.93375   0.94802   1.000
    C69     C    0.81642   0.93375   0.94803   1.000
    C70     C    0.50799   0.91162   0.88558   1.000
    C71     C    0.00000   0.91162   0.88558   1.000
    C72     C    0.39591   0.83515   0.91565   1.000
    C73     C    0.89590   0.83516   0.91560   1.000
    C74     C    0.49565   0.79053   0.05343   1.000
    C75     C    0.99564   0.79052   0.05343   1.000
    C76     C    0.10836   0.86456   0.02318   1.000
    C77     C    0.60835   0.86457   0.02318   1.000
    C78     C    0.37660   0.73582   0.04244   1.000
    C79     C    0.87659   0.73583   0.04244   1.000
    C80     C    0.32693   0.81768   0.00990   1.000
    C81     C    0.82693   0.81768   0.00991   1.000
    C82     C    0.28947   0.57578   0.91534   1.000
    C83     C    0.78947   0.57578   0.91534   1.000
    C84     C    0.08603   0.53449   0.98929   1.000
    C85     C    0.58602   0.53449   0.98929   1.000
    C86     C    0.24756   0.72189   0.04797   1.000
    C87     C    0.74755   0.72189   0.04797   1.000
    C88     C    0.44467   0.66939   0.63420   1.000
    C89     C    0.94466   0.66939   0.63420   1.000
    C90     C    0.41031   0.44438   0.73505   1.000
    C91     C    0.91030   0.44438   0.73505   1.000
    C92     C    0.10922   0.60842   0.73720   1.000
    C93     C    0.60921   0.60842   0.73720   1.000
    C94     C    0.32637   0.64420   0.62706   1.000
    C95     C    0.82637   0.64420   0.62706   1.000
    C96     C    0.37543   0.56613   0.59143   1.000
    C97     C    0.87543   0.56613   0.59143   1.000
    C98     C    0.19514   0.60980   0.64356   1.000
    C99     C    0.69513   0.60981   0.64356   1.000
    C100    C    0.08211   0.53646   0.61240   1.000
    C101    C    0.58211   0.53646   0.61240   1.000
    C102    C    0.20408   0.35640   0.52367   1.000
    C103    C    0.70407   0.35640   0.52367   1.000
    C104    C    0.31666   0.43403   0.55262   1.000
    C105    C    0.81665   0.43402   0.55262   1.000
    C106    C    0.50775   0.40967   0.61480   1.000
    C107    C    0.00000   0.40967   0.61481   1.000
    C108    C    0.39597   0.33356   0.58440   1.000
    C109    C    0.89596   0.33355   0.58440   1.000
    C110    C    0.49672   0.29171   0.44650   1.000
    C111    C    0.99671   0.29171   0.44650   1.000
    C112    C    0.10913   0.36569   0.47690   1.000
    C113    C    0.60912   0.36569   0.47697   1.000
    C114    C    0.37769   0.23588   0.45751   1.000
    C115    C    0.87768   0.23588   0.45751   1.000
    C116    C    0.32785   0.31791   0.48983   1.000
    C117    C    0.82784   0.31791   0.48980   1.000
    C118    C    0.28880   0.07525   0.58419   1.000
    C119    C    0.78879   0.07525   0.58419   1.000
    C120    C    0.08668   0.03410   0.50924   1.000
    C121    C    0.58667   0.03411   0.50920   1.000
    C122    C    0.24906   0.22210   0.45142   1.000
    C123    C    0.74906   0.22210   0.45142   1.000
    C124    C    0.05453   0.83096   0.13365   1.000
    C125    C    0.55452   0.83096   0.13365   1.000
    C126    C    0.08932   0.05560   0.23434   1.000
    C127    C    0.58931   0.05559   0.23430   1.000
    C128    C    0.39043   0.89143   0.23756   1.000
    C129    C    0.89042   0.89143   0.23756   1.000
    C130    C    0.17258   0.85547   0.12632   1.000
    C131    C    0.67258   0.85547   0.12632   1.000
    C132    C    0.12408   0.93381   0.09054   1.000
    C133    C    0.62408   0.93381   0.09054   1.000
    C134    C    0.30383   0.88843   0.14240   1.000
    C135    C    0.80382   0.88843   0.14241   1.000
    C136    C    0.41732   0.96176   0.11148   1.000
    C137    C    0.91731   0.96177   0.11148   1.000
    C138    C    0.29656   0.14397   0.02330   1.000
    C139    C    0.79655   0.14397   0.02337   1.000
    C140    C    0.18356   0.06622   0.05196   1.000
    C141    C    0.68355   0.06622   0.05197   1.000
    C142    C    0.99201   0.08835   0.11441   1.000
    C143    C    0.49200   0.08835   0.11440   1.000
    C144    C    0.10408   0.16481   0.08434   1.000
    C145    C    0.60407   0.16482   0.08434   1.000
    C146    C    0.00434   0.20946   0.94656   1.000
    C147    C    0.50433   0.20945   0.94650   1.000
    C148    C    0.39164   0.13542   0.97681   1.000
    C149    C    0.89163   0.13543   0.97681   1.000
    C150    C    0.12339   0.26415   0.95755   1.000
    C151    C    0.62339   0.26415   0.95755   1.000
    C152    C    0.17306   0.18230   0.99008   1.000
    C153    C    0.67305   0.18230   0.99007   1.000
    C154    C    0.21051   0.42420   0.08465   1.000
    C155    C    0.71050   0.42420   0.08465   1.000
    C156    C    0.41395   0.46551   0.01069   1.000
    C157    C    0.91394   0.46551   0.01069   1.000
    C158    C    0.25243   0.27809   0.95202   1.000
    C159    C    0.75242   0.27809   0.95202   1.000
    C160    C    0.46906   0.35414   0.31611   1.000
    C161    C    0.96905   0.35414   0.31611   1.000
    C162    C    0.03658   0.37481   0.33712   1.000
    C163    C    0.53658   0.37481   0.33712   1.000
    C164    C    0.07931   0.44930   0.31944   1.000
    C165    C    0.57931   0.44930   0.31944   1.000
    C166    C    0.05522   0.49998   0.27976   1.000
    C167    C    0.55521   0.49998   0.27976   1.000
    C168    C    0.48746   0.47970   0.25983   1.000
    C169    C    0.98745   0.47970   0.25983   1.000
    C170    C    0.44336   0.40740   0.27831   1.000
    C171    C    0.94335   0.40740   0.27831   1.000
    C172    C    0.42650   0.27226   0.33328   1.000
    C173    C    0.92649   0.27226   0.33328   1.000
    C174    C    0.46210   0.53353   0.21760   1.000
    C175    C    0.96209   0.53353   0.21760   1.000
    C176    C    0.16735   0.42889   0.38126   1.000
    C177    C    0.66734   0.42889   0.38126   1.000
    C178    C    0.23608   0.47384   0.39929   1.000
    C179    C    0.73607   0.47384   0.39929   1.000
    C180    C    0.30289   0.44577   0.38282   1.000
    C181    C    0.80288   0.44576   0.38283   1.000
    C182    C    0.36651   0.48767   0.40004   1.000
    C183    C    0.86650   0.48766   0.40004   1.000
    C184    C    0.36557   0.55953   0.43407   1.000
    C185    C    0.86557   0.55953   0.43407   1.000
    C186    C    0.29836   0.58708   0.45055   1.000
    C187    C    0.79835   0.58709   0.45054   1.000
    C188    C    0.23490   0.54443   0.43370   1.000
    C189    C    0.73489   0.54444   0.43370   1.000
    C190    C    0.43312   0.60447   0.45211   1.000
    C191    C    0.93311   0.60447   0.45210   1.000
    C192    C    0.99456   0.61450   0.42248   1.000
    C193    C    0.49455   0.61451   0.42248   1.000
    C194    C    0.05782   0.65725   0.43962   1.000
    C195    C    0.55781   0.65726   0.43960   1.000
    C196    C    0.06212   0.69085   0.48712   1.000
    C197    C    0.56211   0.69085   0.48712   1.000
    C198    C    0.00112   0.68182   0.51662   1.000
    C199    C    0.50112   0.68182   0.51662   1.000
    C200    C    0.43764   0.63976   0.49932   1.000
    C201    C    0.93763   0.63977   0.49932   1.000
    C202    C    0.13101   0.73409   0.50646   1.000
    C203    C    0.63100   0.73409   0.50646   1.000
    C204    C    0.22341   0.84461   0.48072   1.000
    C205    C    0.72340   0.84461   0.48072   1.000
    C206    C    0.24673   0.90915   0.44560   1.000
    C207    C    0.74672   0.90915   0.44560   1.000
    C208    C    0.31542   0.95124   0.44891   1.000
    C209    C    0.81541   0.95124   0.44891   1.000
    C210    C    0.36025   0.93220   0.48803   1.000
    C211    C    0.86024   0.93220   0.48803   1.000
    C212    C    0.33583   0.87077   0.52381   1.000
    C213    C    0.83582   0.87077   0.52381   1.000
    C214    C    0.26776   0.82574   0.52002   1.000
    C215    C    0.76775   0.82574   0.52002   1.000
    C216    C    0.34296   0.01559   0.41077   1.000
    C217    C    0.84295   0.01559   0.41077   1.000
    C218    C    0.38245   0.85305   0.56680   1.000
    C219    C    0.88244   0.85305   0.56680   1.000
    C220    C    0.03143   0.14573   0.81620   1.000
    C221    C    0.53142   0.14573   0.81620   1.000
    C222    C    0.46402   0.12493   0.83756   1.000
    C223    C    0.96401   0.12493   0.83756   1.000
    C224    C    0.42122   0.05053   0.82010   1.000
    C225    C    0.92121   0.05053   0.82010   1.000
    C226    C    0.44518   0.99997   0.78030   1.000
    C227    C    0.94517   0.99997   0.78030   1.000
    C228    C    0.01286   0.02035   0.76003   1.000
    C229    C    0.51286   0.02035   0.76003   1.000
    C230    C    0.05702   0.09262   0.77829   1.000
    C231    C    0.55702   0.09262   0.77829   1.000
    C232    C    0.07386   0.22766   0.83322   1.000
    C233    C    0.57385   0.22766   0.83322   1.000
    C234    C    0.03809   0.96653   0.71770   1.000
    C235    C    0.53809   0.96653   0.71774   1.000
    C236    C    0.33330   0.07135   0.88218   1.000
    C237    C    0.83330   0.07135   0.88218   1.000
    C238    C    0.26431   0.02681   0.90022   1.000
    C239    C    0.76430   0.02682   0.90020   1.000
    C240    C    0.19774   0.05553   0.88384   1.000
    C241    C    0.69773   0.05554   0.88384   1.000
    C242    C    0.13388   0.01361   0.90088   1.000
    C243    C    0.63387   0.01361   0.90088   1.000
    C244    C    0.13437   0.94108   0.93463   1.000
    C245    C    0.63436   0.94108   0.93463   1.000
    C246    C    0.20135   0.91294   0.95105   1.000
    C247    C    0.70134   0.91294   0.95100   1.000
    C248    C    0.26503   0.95566   0.93442   1.000
    C249    C    0.76502   0.95567   0.93442   1.000
    C250    C    0.06662   0.89598   0.95244   1.000
    C251    C    0.56661   0.89598   0.95245   1.000
    C252    C    0.50538   0.88672   0.92279   1.000
    C253    C    0.00000   0.88672   0.92279   1.000
    C254    C    0.44195   0.84376   0.93977   1.000
    C255    C    0.94194   0.84376   0.93977   1.000
    C256    C    0.43728   0.80936   0.98716   1.000
    C257    C    0.93727   0.80936   0.98716   1.000
    C258    C    0.49807   0.81763   0.01668   1.000
    C259    C    0.99806   0.81762   0.01668   1.000
    C260    C    0.06172   0.85981   0.99951   1.000
    C261    C    0.56171   0.85982   0.99951   1.000
    C262    C    0.36825   0.76585   0.00638   1.000
    C263    C    0.86825   0.76585   0.00638   1.000
    C264    C    0.27627   0.65541   0.98028   1.000
    C265    C    0.77626   0.65541   0.98020   1.000
    C266    C    0.25346   0.59123   0.94501   1.000
    C267    C    0.75345   0.59123   0.94501   1.000
    C268    C    0.18469   0.54921   0.94800   1.000
    C269    C    0.68468   0.54921   0.94800   1.000
    C270    C    0.13915   0.56814   0.98686   1.000
    C271    C    0.63914   0.56814   0.98680   1.000
    C272    C    0.16297   0.62935   0.02275   1.000
    C273    C    0.66296   0.62934   0.02275   1.000
    C274    C    0.23118   0.67422   0.01934   1.000
    C275    C    0.73118   0.67422   0.01934   1.000
    C276    C    0.15762   0.48513   0.90982   1.000
    C277    C    0.65762   0.48513   0.90980   1.000
    C278    C    0.11546   0.64701   0.06535   1.000
    C279    C    0.61545   0.64701   0.06535   1.000
    C280    C    0.03093   0.64584   0.68387   1.000
    C281    C    0.53092   0.64584   0.68387   1.000
    C282    C    0.46341   0.62516   0.66286   1.000
    C283    C    0.96340   0.62516   0.66286   1.000
    C284    C    0.42067   0.55068   0.68054   1.000
    C285    C    0.92067   0.55068   0.68054   1.000
    C286    C    0.44477   0.50000   0.72022   1.000
    C287    C    0.94477   0.50000   0.72022   1.000
    C288    C    0.01253   0.52029   0.74015   1.000
    C289    C    0.51252   0.52029   0.74015   1.000
    C290    C    0.05663   0.59258   0.72167   1.000
    C291    C    0.55662   0.59258   0.72167   1.000
    C292    C    0.07349   0.72772   0.66670   1.000
    C293    C    0.57349   0.72772   0.66670   1.000
    C294    C    0.03789   0.46645   0.78234   1.000
    C295    C    0.53788   0.46645   0.78234   1.000
    C296    C    0.33264   0.57108   0.61872   1.000
    C297    C    0.83263   0.57108   0.61872   1.000
    C298    C    0.26391   0.52613   0.60069   1.000
    C299    C    0.76390   0.52613   0.60069   1.000
    C300    C    0.19709   0.55420   0.61716   1.000
    C301    C    0.69709   0.55421   0.61710   1.000
    C302    C    0.13348   0.51230   0.59994   1.000
    C303    C    0.63348   0.51230   0.59994   1.000
    C304    C    0.13442   0.44043   0.56592   1.000
    C305    C    0.63441   0.44043   0.56590   1.000
    C306    C    0.20164   0.41288   0.54944   1.000
    C307    C    0.70163   0.41288   0.54944   1.000
    C308    C    0.26509   0.45554   0.56629   1.000
    C309    C    0.76508   0.45553   0.56629   1.000
    C310    C    0.06688   0.39549   0.54787   1.000
    C311    C    0.56687   0.39549   0.54787   1.000
    C312    C    0.50544   0.38546   0.57750   1.000
    C313    C    0.00000   0.38546   0.57750   1.000
    C314    C    0.44217   0.34271   0.56037   1.000
    C315    C    0.94216   0.34271   0.56037   1.000
    C316    C    0.43787   0.30912   0.51286   1.000
    C317    C    0.93787   0.30912   0.51286   1.000
    C318    C    0.49887   0.31815   0.48336   1.000
    C319    C    0.99886   0.31815   0.48336   1.000
    C320    C    0.06236   0.36020   0.50066   1.000
    C321    C    0.56235   0.36020   0.50066   1.000
    C322    C    0.36898   0.26588   0.49352   1.000
    C323    C    0.86897   0.26588   0.49352   1.000
    C324    C    0.27658   0.15536   0.51926   1.000
    C325    C    0.77657   0.15536   0.51926   1.000
    C326    C    0.25326   0.09082   0.55437   1.000
    C327    C    0.75325   0.09082   0.55437   1.000
    C328    C    0.18457   0.04873   0.55107   1.000
    C329    C    0.68456   0.04873   0.55107   1.000
    C330    C    0.13974   0.06777   0.51195   1.000
    C331    C    0.63973   0.06777   0.51195   1.000
    C332    C    0.16416   0.12920   0.47617   1.000
    C333    C    0.66415   0.12920   0.47617   1.000
    C334    C    0.23223   0.17423   0.47996   1.000
    C335    C    0.73222   0.17423   0.47996   1.000
    C336    C    0.15703   0.98439   0.58921   1.000
    C337    C    0.65703   0.98439   0.58921   1.000
    C338    C    0.11754   0.14692   0.43310   1.000
    C339    C    0.61753   0.14693   0.43319   1.000
    C340    C    0.46856   0.85425   0.18379   1.000
    C341    C    0.96855   0.85425   0.18379   1.000
    C342    C    0.03597   0.87505   0.16243   1.000
    C343    C    0.53597   0.87505   0.16243   1.000
    C344    C    0.07877   0.94945   0.17989   1.000
    C345    C    0.57877   0.94945   0.17989   1.000
    C346    C    0.05481   0.00001   0.21968   1.000
    C347    C    0.55480   0.00001   0.21969   1.000
    C348    C    0.48712   0.97963   0.23996   1.000
    C349    C    0.98712   0.97963   0.23996   1.000
    C350    C    0.44296   0.90736   0.22170   1.000
    C351    C    0.94296   0.90736   0.22170   1.000
    C352    C    0.42613   0.77232   0.16676   1.000
    C353    C    0.92612   0.77232   0.16676   1.000
    C354    C    0.46189   0.03346   0.28224   1.000
    C355    C    0.96189   0.03346   0.28224   1.000
    C356    C    0.16669   0.92862   0.11781   1.000
    C357    C    0.66668   0.92862   0.11780   1.000
    C358    C    0.23569   0.97316   0.09970   1.000
    C359    C    0.73568   0.97316   0.09977   1.000
    C360    C    0.30226   0.94444   0.11615   1.000
    C361    C    0.80225   0.94444   0.11610   1.000
    C362    C    0.36611   0.98636   0.09911   1.000
    C363    C    0.86611   0.98637   0.09911   1.000
    C364    C    0.36562   0.05889   0.06536   1.000
    C365    C    0.86562   0.05890   0.06536   1.000
    C366    C    0.29864   0.08703   0.04893   1.000
    C367    C    0.79863   0.08703   0.04894   1.000
    C368    C    0.23496   0.04430   0.06557   1.000
    C369    C    0.73495   0.04431   0.06557   1.000
    C370    C    0.43337   0.10399   0.04754   1.000
    C371    C    0.93336   0.10400   0.04754   1.000
    C372    C    0.99462   0.11325   0.07720   1.000
    C373    C    0.49461   0.11325   0.07700   1.000
    C374    C    0.05805   0.15621   0.06022   1.000
    C375    C    0.55804   0.15622   0.06022   1.000
    C376    C    0.06271   0.19062   0.01283   1.000
    C377    C    0.56271   0.19062   0.01283   1.000
    C378    C    0.00192   0.18236   0.98331   1.000
    C379    C    0.50191   0.18235   0.98331   1.000
    C380    C    0.43827   0.14016   0.00048   1.000
    C381    C    0.93826   0.14017   0.00048   1.000
    C382    C    0.13174   0.23412   0.99361   1.000
    C383    C    0.63173   0.23412   0.99361   1.000
    C384    C    0.22372   0.34458   0.01970   1.000
    C385    C    0.72371   0.34458   0.01970   1.000
    C386    C    0.24652   0.40876   0.05497   1.000
    C387    C    0.74652   0.40876   0.05497   1.000
    C388    C    0.31529   0.45078   0.05198   1.000
    C389    C    0.81528   0.45078   0.05198   1.000
    C390    C    0.36083   0.43186   0.01312   1.000
    C391    C    0.86082   0.43186   0.01312   1.000
    C392    C    0.33701   0.37065   0.97724   1.000
    C393    C    0.83700   0.37065   0.97724   1.000
    C394    C    0.26880   0.32577   0.98065   1.000
    C395    C    0.76880   0.32577   0.98065   1.000
    C396    C    0.34236   0.51486   0.09016   1.000
    C397    C    0.84235   0.51486   0.09016   1.000
    C398    C    0.38452   0.35300   0.93463   1.000
    C399    C    0.88452   0.35299   0.93463   1.000
    C400    C    0.36890   0.24623   0.31027   1.000
    C401    C    0.86890   0.24623   0.31027   1.000
    C402    C    0.44715   0.22702   0.37019   1.000
    C403    C    0.94714   0.22702   0.37019   1.000
    C404    C    0.14450   0.47676   0.33776   1.000
    C405    C    0.64449   0.47676   0.33776   1.000
    C406    C    0.15653   0.80464   0.47300   1.000
    C407    C    0.65652   0.80464   0.47300   1.000
    C408    C    0.36873   0.78902   0.59573   1.000
    C409    C    0.86873   0.78902   0.59573   1.000
    C410    C    0.43807   0.91129   0.57014   1.000
    C411    C    0.93806   0.91130   0.57014   1.000
    C412    C    0.41040   0.03027   0.40663   1.000
    C413    C    0.91039   0.03027   0.40663   1.000
    C414    C    0.39406   0.53861   0.21283   1.000
    C415    C    0.89406   0.53861   0.21283   1.000
    C416    C    0.00969   0.56992   0.18933   1.000
    C417    C    0.50968   0.56992   0.18933   1.000
    C418    C    0.29677   0.05363   0.38283   1.000
    C419    C    0.79676   0.05363   0.38283   1.000
    C420    C    0.13150   0.25387   0.81012   1.000
    C421    C    0.63149   0.25387   0.81012   1.000
    C422    C    0.05303   0.27282   0.87011   1.000
    C423    C    0.55302   0.27282   0.87011   1.000
    C424    C    0.35610   0.02311   0.83878   1.000
    C425    C    0.85610   0.02310   0.83879   1.000
    C426    C    0.34334   0.69524   0.97302   1.000
    C427    C    0.84333   0.69524   0.97302   1.000
    C428    C    0.12843   0.71125   0.09419   1.000
    C429    C    0.62842   0.71125   0.09419   1.000
    C430    C    0.05992   0.58861   0.06869   1.000
    C431    C    0.55991   0.58861   0.06869   1.000
    C432    C    0.09031   0.46897   0.90622   1.000
    C433    C    0.59030   0.46897   0.90622   1.000
    C434    C    0.10615   0.96139   0.71270   1.000
    C435    C    0.60615   0.96139   0.71270   1.000
    C436    C    0.49051   0.93025   0.68960   1.000
    C437    C    0.99050   0.93025   0.68960   1.000
    C438    C    0.20394   0.44844   0.88136   1.000
    C439    C    0.70393   0.44844   0.88136   1.000
    C440    C    0.13108   0.75375   0.68970   1.000
    C441    C    0.63108   0.75375   0.68970   1.000
    C442    C    0.05284   0.77296   0.62980   1.000
    C443    C    0.55283   0.77296   0.62900   1.000
    C444    C    0.35549   0.52322   0.66223   1.000
    C445    C    0.85548   0.52322   0.66223   1.000
    C446    C    0.34346   0.19533   0.52690   1.000
    C447    C    0.84345   0.19533   0.52690   1.000
    C448    C    0.13126   0.21096   0.40425   1.000
    C449    C    0.63125   0.21096   0.40425   1.000
    C450    C    0.06192   0.08867   0.42984   1.000
    C451    C    0.56191   0.08868   0.42984   1.000
    C452    C    0.08959   0.96971   0.59330   1.000
    C453    C    0.58958   0.96971   0.59330   1.000
    C454    C    0.10592   0.46137   0.78715   1.000
    C455    C    0.60592   0.46137   0.78715   1.000
    C456    C    0.49030   0.43006   0.81065   1.000
    C457    C    0.99030   0.43006   0.81065   1.000
    C458    C    0.20322   0.94634   0.61715   1.000
    C459    C    0.70321   0.94634   0.61715   1.000
    C460    C    0.36849   0.74611   0.18980   1.000
    C461    C    0.86848   0.74611   0.18980   1.000
    C462    C    0.44696   0.72716   0.12988   1.000
    C463    C    0.94695   0.72716   0.12988   1.000
    C464    C    0.14389   0.97687   0.16120   1.000
    C465    C    0.64388   0.97687   0.16121   1.000
    C466    C    0.15665   0.30475   0.02697   1.000
    C467    C    0.65665   0.30474   0.02697   1.000
    C468    C    0.37157   0.28874   0.90579   1.000
    C469    C    0.87156   0.28874   0.90579   1.000
    C470    C    0.44006   0.41140   0.93129   1.000
    C471    C    0.94005   0.41140   0.93129   1.000
    C472    C    0.40967   0.53101   0.09370   1.000
    C473    C    0.90967   0.53101   0.09370   1.000
    C474    C    0.39383   0.03859   0.28729   1.000
    C475    C    0.89383   0.03859   0.28729   1.000
    C476    C    0.00948   0.06973   0.31038   1.000
    C477    C    0.50947   0.06974   0.31038   1.000
    C478    C    0.29605   0.55155   0.11862   1.000
    C479    C    0.79604   0.55155   0.11862   1.000
    O480    O    0.93581   0.12208   0.02401   1.000
    O481    O    0.91494   0.13780   0.98865   1.000
    O482    O    0.97009   0.16126   0.99190   1.000
    O483    O    0.43582   0.12208   0.02401   1.000
    O484    O    0.41495   0.13779   0.98865   1.000
    O485    O    0.47009   0.16126   0.99190   1.000
    O486    O    0.84759   0.79177   0.00815   1.000
    O487    O    0.87242   0.75084   0.02441   1.000
    O488    O    0.85579   0.73054   0.98970   1.000
    O489    O    0.90276   0.78761   0.99677   1.000
    O490    O    0.34759   0.79177   0.00814   1.000
    O491    O    0.37243   0.75084   0.02441   1.000
    O492    O    0.35579   0.73054   0.98970   1.000
    O493    O    0.40277   0.78761   0.99677   1.000
    O494    O    0.88738   0.44868   0.01191   1.000
    O495    O    0.38739   0.44869   0.01191   1.000
    O496    O    0.56037   0.17342   0.03653   1.000
    O497    O    0.53231   0.18648   0.99807   1.000
    O498    O    0.59722   0.21237   0.00322   1.000
    O499    O    0.06038   0.17342   0.03653   1.000
    O500    O    0.03232   0.18649   0.99807   1.000
    O501    O    0.09723   0.21237   0.00322   1.000
    O502    O    0.83805   0.44132   0.03255   1.000
    O503    O    0.84891   0.40125   0.99518   1.000
    O504    O    0.33806   0.44132   0.03255   1.000
    O505    O    0.34892   0.40126   0.99518   1.000
    O506    O    0.49686   0.80408   0.03506   1.000
    O507    O    0.46767   0.81349   0.00192   1.000
    O508    O    0.52989   0.83872   0.00810   1.000
    O509    O    0.99685   0.80407   0.03506   1.000
    O510    O    0.96767   0.81349   0.00192   1.000
    O511    O    0.02989   0.83872   0.00810   1.000
    O512    O    0.69707   0.65178   0.02105   1.000
    O513    O    0.73936   0.69806   0.03366   1.000
    O514    O    0.75372   0.66481   0.99977   1.000
    O515    O    0.19708   0.65178   0.02105   1.000
    O516    O    0.23937   0.69806   0.03366   1.000
    O517    O    0.25373   0.66482   0.99981   1.000
    O518    O    0.69018   0.32466   0.02334   1.000
    O519    O    0.73511   0.37667   0.03734   1.000
    O520    O    0.74625   0.33517   0.00018   1.000
    O521    O    0.19019   0.32466   0.02334   1.000
    O522    O    0.23512   0.37667   0.03734   1.000
    O523    O    0.24626   0.33517   0.00018   1.000
    O524    O    0.63921   0.63818   0.04405   1.000
    O525    O    0.65105   0.59874   0.00478   1.000
    O526    O    0.13922   0.63818   0.04405   1.000
    O527    O    0.15106   0.59874   0.00481   1.000
    O528    O    0.58503   0.86219   0.01135   1.000
    O529    O    0.08504   0.86219   0.01135   1.000
    O530    O    0.29760   0.11550   0.03612   1.000
    O531    O    0.79759   0.11550   0.03616   1.000
    O532    O    0.14420   0.26943   0.01029   1.000
    O533    O    0.64419   0.26943   0.01029   1.000
    O534    O    0.89949   0.08145   0.05645   1.000
    O535    O    0.96399   0.10863   0.06237   1.000
    O536    O    0.39950   0.08144   0.05645   1.000
    O537    O    0.46399   0.10862   0.06227   1.000
    O538    O    0.33213   0.07296   0.05715   1.000
    O539    O    0.26680   0.06567   0.05725   1.000
    O540    O    0.83212   0.07296   0.05715   1.000
    O541    O    0.76679   0.06567   0.05726   1.000
    O542    O    0.20926   0.05526   0.05877   1.000
    O543    O    0.70925   0.05526   0.05877   1.000
    O544    O    0.28091   0.42977   0.05348   1.000
    O545    O    0.32883   0.48282   0.07107   1.000
    O546    O    0.78090   0.42977   0.05348   1.000
    O547    O    0.82882   0.48282   0.07107   1.000
    O548    O    0.72851   0.41648   0.06981   1.000
    O549    O    0.22852   0.41648   0.06981   1.000
    O550    O    0.02633   0.13473   0.06871   1.000
    O551    O    0.08107   0.16051   0.07228   1.000
    O552    O    0.52632   0.13473   0.06861   1.000
    O553    O    0.58106   0.16052   0.07228   1.000
    O554    O    0.58768   0.61781   0.06702   1.000
    O555    O    0.62194   0.67913   0.07977   1.000
    O556    O    0.08769   0.61781   0.06702   1.000
    O557    O    0.12194   0.67913   0.07977   1.000
    O558    O    0.36587   0.02263   0.08224   1.000
    O559    O    0.86586   0.02263   0.08224   1.000
    O560    O    0.73532   0.00873   0.08267   1.000
    O561    O    0.23532   0.00873   0.08264   1.000
    O562    O    0.52828   0.59725   0.09481   1.000
    O563    O    0.02828   0.59725   0.09481   1.000
    O564    O    0.49330   0.10080   0.09570   1.000
    O565    O    0.99331   0.10080   0.09581   1.000
    O566    O    0.37602   0.52294   0.09193   1.000
    O567    O    0.31920   0.53320   0.10439   1.000
    O568    O    0.87601   0.52293   0.09193   1.000
    O569    O    0.81920   0.53320   0.10439   1.000
    O570    O    0.14539   0.93122   0.10418   1.000
    O571    O    0.64538   0.93122   0.10417   1.000
    O572    O    0.45317   0.56845   0.10732   1.000
    O573    O    0.95316   0.56845   0.10732   1.000
    O574    O    0.39172   0.97406   0.10530   1.000
    O575    O    0.33419   0.96540   0.10763   1.000
    O576    O    0.89171   0.97407   0.10530   1.000
    O577    O    0.83418   0.96540   0.10761   1.000
    O578    O    0.26897   0.95880   0.10793   1.000
    O579    O    0.20119   0.95089   0.10876   1.000
    O580    O    0.76897   0.95880   0.10794   1.000
    O581    O    0.70118   0.95089   0.10879   1.000
    O582    O    0.80304   0.91644   0.12926   1.000
    O583    O    0.30304   0.91644   0.12928   1.000
    O584    O    0.66963   0.89205   0.12206   1.000
    O585    O    0.65528   0.95275   0.13951   1.000
    O586    O    0.16964   0.89205   0.12207   1.000
    O587    O    0.15529   0.95275   0.13951   1.000
    O588    O    0.82267   0.58611   0.14257   1.000
    O589    O    0.32268   0.58611   0.14257   1.000
    O590    O    0.47181   0.66653   0.12541   1.000
    O591    O    0.50317   0.58790   0.15513   1.000
    O592    O    0.97180   0.66653   0.12541   1.000
    O593    O    0.00317   0.58791   0.15513   1.000
    O594    O    0.93654   0.74974   0.14832   1.000
    O595    O    0.43655   0.74974   0.14832   1.000
    O596    O    0.54524   0.85300   0.14804   1.000
    O597    O    0.04525   0.85300   0.14804   1.000
    O598    O    0.11133   0.96316   0.17055   1.000
    O599    O    0.61132   0.96316   0.17055   1.000
    O600    O    0.55737   0.91225   0.17116   1.000
    O601    O    0.50226   0.86465   0.17311   1.000
    O602    O    0.05737   0.91225   0.17116   1.000
    O603    O    0.00226   0.86465   0.17311   1.000
    O604    O    0.35890   0.68339   0.17816   1.000
    O605    O    0.37169   0.57964   0.18967   1.000
    O606    O    0.85889   0.68339   0.17816   1.000
    O607    O    0.87168   0.57964   0.18967   1.000
    O608    O    0.44735   0.81328   0.17528   1.000
    O609    O    0.39731   0.75921   0.17828   1.000
    O610    O    0.94734   0.81328   0.17528   1.000
    O611    O    0.89730   0.75921   0.17828   1.000
    O612    O    0.06679   0.97473   0.19979   1.000
    O613    O    0.56679   0.97473   0.19979   1.000
    O614    O    0.45576   0.88081   0.20275   1.000
    O615    O    0.95575   0.88081   0.20275   1.000
    O616    O    0.98589   0.55172   0.20347   1.000
    O617    O    0.48589   0.55172   0.20347   1.000
    O618    O    0.92807   0.53607   0.21522   1.000
    O619    O    0.42808   0.53607   0.21522   1.000
    O620    O    0.97477   0.50661   0.23872   1.000
    O621    O    0.47478   0.50661   0.23872   1.000
    O622    O    0.07207   0.02780   0.22701   1.000
    O623    O    0.02097   0.98982   0.22982   1.000
    O624    O    0.57206   0.02780   0.22700   1.000
    O625    O    0.52096   0.98982   0.22983   1.000
    O626    O    0.91669   0.89939   0.22963   1.000
    O627    O    0.96504   0.94350   0.23083   1.000
    O628    O    0.41669   0.89939   0.22963   1.000
    O629    O    0.46504   0.94350   0.23083   1.000
    O630    O    0.47451   0.00654   0.26110   1.000
    O631    O    0.97450   0.00654   0.26110   1.000
    O632    O    0.46541   0.44355   0.26907   1.000
    O633    O    0.52133   0.48984   0.26980   1.000
    O634    O    0.96540   0.44355   0.26907   1.000
    O635    O    0.02133   0.48984   0.26980   1.000
    O636    O    0.41706   0.39948   0.27051   1.000
    O637    O    0.91706   0.39948   0.27051   1.000
    O638    O    0.57244   0.52779   0.27235   1.000
    O639    O    0.07245   0.52779   0.27235   1.000
    O640    O    0.95620   0.38077   0.29721   1.000
    O641    O    0.45621   0.38077   0.29721   1.000
    O642    O    0.06726   0.47464   0.29960   1.000
    O643    O    0.56726   0.47464   0.29960   1.000
    O644    O    0.42786   0.03603   0.28477   1.000
    O645    O    0.48568   0.05160   0.29631   1.000
    O646    O    0.92786   0.03603   0.28477   1.000
    O647    O    0.98568   0.05160   0.29631   1.000
    O648    O    0.37162   0.07968   0.31049   1.000
    O649    O    0.87162   0.07968   0.31049   1.000
    O650    O    0.89769   0.25924   0.32178   1.000
    O651    O    0.85915   0.18349   0.32198   1.000
    O652    O    0.39770   0.25924   0.32178   1.000
    O653    O    0.35916   0.18349   0.32198   1.000
    O654    O    0.00311   0.08773   0.34465   1.000
    O655    O    0.50311   0.08773   0.34465   1.000
    O656    O    0.94777   0.31320   0.32470   1.000
    O657    O    0.00282   0.36448   0.32662   1.000
    O658    O    0.44778   0.31320   0.32470   1.000
    O659    O    0.50282   0.36448   0.32662   1.000
    O660    O    0.55794   0.41206   0.32828   1.000
    O661    O    0.61190   0.46303   0.32860   1.000
    O662    O    0.05795   0.41206   0.32828   1.000
    O663    O    0.11191   0.46303   0.32860   1.000
    O664    O    0.43682   0.24964   0.35174   1.000
    O665    O    0.93682   0.24964   0.35174   1.000
    O666    O    0.82308   0.08719   0.35826   1.000
    O667    O    0.32309   0.08719   0.35826   1.000
    O668    O    0.04595   0.35270   0.35145   1.000
    O669    O    0.54594   0.35270   0.35145   1.000
    O670    O    0.65592   0.45283   0.35951   1.000
    O671    O    0.15593   0.45283   0.35951   1.000
    O672    O    0.30387   0.41797   0.36961   1.000
    O673    O    0.80386   0.41796   0.36963   1.000
    O674    O    0.97194   0.16637   0.37456   1.000
    O675    O    0.47195   0.16637   0.37456   1.000
    O676    O    0.17048   0.39233   0.37709   1.000
    O677    O    0.67047   0.39233   0.37709   1.000
    O678    O    0.95357   0.06800   0.39278   1.000
    O679    O    0.02933   0.09720   0.40438   1.000
    O680    O    0.45358   0.06799   0.39278   1.000
    O681    O    0.52933   0.09720   0.40438   1.000
    O682    O    0.20172   0.45136   0.39028   1.000
    O683    O    0.14595   0.43136   0.39491   1.000
    O684    O    0.70171   0.45136   0.39028   1.000
    O685    O    0.64594   0.43137   0.39491   1.000
    O686    O    0.26949   0.45980   0.39106   1.000
    O687    O    0.33470   0.46672   0.39143   1.000
    O688    O    0.31986   0.03461   0.39680   1.000
    O689    O    0.81986   0.03461   0.39680   1.000
    O690    O    0.76948   0.45980   0.39106   1.000
    O691    O    0.83469   0.46671   0.39144   1.000
    O692    O    0.49339   0.60240   0.40383   1.000
    O693    O    0.99340   0.60239   0.40383   1.000
    O694    O    0.89218   0.47558   0.39381   1.000
    O695    O    0.39219   0.47559   0.39381   1.000
    O696    O    0.73548   0.50914   0.41650   1.000
    O697    O    0.23549   0.50913   0.41650   1.000
    O698    O    0.86603   0.52360   0.41706   1.000
    O699    O    0.36604   0.52360   0.41706   1.000
    O700    O    0.12440   0.17894   0.41868   1.000
    O701    O    0.62439   0.17894   0.41872   1.000
    O702    O    0.87667   0.02293   0.40870   1.000
    O703    O    0.37668   0.02293   0.40870   1.000
    O704    O    0.82918   0.98342   0.42984   1.000
    O705    O    0.32919   0.98341   0.42984   1.000
    O706    O    0.58092   0.66184   0.42755   1.000
    O707    O    0.08093   0.66182   0.42758   1.000
    O708    O    0.22896   0.91694   0.43070   1.000
    O709    O    0.72895   0.91694   0.43070   1.000
    O710    O    0.02619   0.63588   0.43105   1.000
    O711    O    0.96383   0.60949   0.43729   1.000
    O712    O    0.52618   0.63588   0.43104   1.000
    O713    O    0.46383   0.60949   0.43730   1.000
    O714    O    0.08973   0.11780   0.43147   1.000
    O715    O    0.58972   0.11780   0.43152   1.000
    O716    O    0.14085   0.13806   0.45464   1.000
    O717    O    0.64084   0.13807   0.45468   1.000
    O718    O    0.20912   0.55518   0.44050   1.000
    O719    O    0.26663   0.56576   0.44213   1.000
    O720    O    0.70911   0.55519   0.44053   1.000
    O721    O    0.76662   0.56576   0.44212   1.000
    O722    O    0.83196   0.57331   0.44231   1.000
    O723    O    0.89934   0.58200   0.44309   1.000
    O724    O    0.33196   0.57331   0.44231   1.000
    O725    O    0.39934   0.58200   0.44309   1.000
    O726    O    0.55996   0.67405   0.46336   1.000
    O727    O    0.05997   0.67405   0.46337   1.000
    O728    O    0.28108   0.93020   0.44726   1.000
    O729    O    0.23507   0.87688   0.46316   1.000
    O730    O    0.78107   0.93020   0.44726   1.000
    O731    O    0.73506   0.87688   0.46316   1.000
    O732    O    0.49779   0.30493   0.46493   1.000
    O733    O    0.99779   0.30493   0.46493   1.000
    O734    O    0.83783   0.94172   0.46847   1.000
    O735    O    0.33784   0.94172   0.46847   1.000
    O736    O    0.79713   0.61533   0.46343   1.000
    O737    O    0.29713   0.61532   0.46344   1.000
    O738    O    0.74064   0.19816   0.46569   1.000
    O739    O    0.24065   0.19816   0.46569   1.000
    O740    O    0.93537   0.62212   0.47571   1.000
    O741    O    0.43538   0.62212   0.47572   1.000
    O742    O    0.87333   0.25088   0.47552   1.000
    O743    O    0.37333   0.25088   0.47552   1.000
    O744    O    0.68996   0.82463   0.47686   1.000
    O745    O    0.64376   0.76936   0.48973   1.000
    O746    O    0.18997   0.82463   0.47686   1.000
    O747    O    0.14377   0.76936   0.48973   1.000
    O748    O    0.19819   0.15172   0.47807   1.000
    O749    O    0.15195   0.09849   0.49406   1.000
    O750    O    0.69818   0.15172   0.47807   1.000
    O751    O    0.65194   0.09849   0.49406   1.000
    O752    O    0.08574   0.36294   0.48878   1.000
    O753    O    0.58573   0.36294   0.48882   1.000
    O754    O    0.75440   0.16480   0.49961   1.000
    O755    O    0.25440   0.16479   0.49961   1.000
    O756    O    0.24559   0.83518   0.50037   1.000
    O757    O    0.74558   0.83518   0.50037   1.000
    O758    O    0.03061   0.33917   0.49201   1.000
    O759    O    0.96836   0.31363   0.49811   1.000
    O760    O    0.53061   0.33917   0.49201   1.000
    O761    O    0.46837   0.31363   0.49811   1.000
    O762    O    0.59656   0.71247   0.49679   1.000
    O763    O    0.53161   0.68633   0.50187   1.000
    O764    O    0.09657   0.71247   0.49679   1.000
    O765    O    0.03162   0.68634   0.50187   1.000
    O766    O    0.38678   0.94903   0.48939   1.000
    O767    O    0.34804   0.90148   0.50592   1.000
    O768    O    0.88677   0.94903   0.48939   1.000
    O769    O    0.84803   0.90149   0.50592   1.000
    O770    O    0.84841   0.29189   0.49166   1.000
    O771    O    0.34841   0.29190   0.49168   1.000
    O772    O    0.40343   0.28750   0.50319   1.000
    O773    O    0.35622   0.23061   0.51021   1.000
    O774    O    0.90342   0.28750   0.50319   1.000
    O775    O    0.85621   0.23061   0.51021   1.000
    O776    O    0.96938   0.66080   0.50797   1.000
    O777    O    0.91424   0.63703   0.51117   1.000
    O778    O    0.46938   0.66079   0.50797   1.000
    O779    O    0.41425   0.63702   0.51117   1.000
    O780    O    0.06462   0.37784   0.52427   1.000
    O781    O    0.56461   0.37784   0.52427   1.000
    O782    O    0.15158   0.70807   0.50831   1.000
    O783    O    0.12666   0.74908   0.52447   1.000
    O784    O    0.65157   0.70807   0.50831   1.000
    O785    O    0.62665   0.74908   0.52447   1.000
    O786    O    0.61320   0.05094   0.51058   1.000
    O787    O    0.11321   0.05094   0.51060   1.000
    O788    O    0.16216   0.05825   0.53151   1.000
    O789    O    0.66215   0.05825   0.53151   1.000
    O790    O    0.44002   0.32591   0.53662   1.000
    O791    O    0.94002   0.32591   0.53662   1.000
    O792    O    0.00220   0.69504   0.53505   1.000
    O793    O    0.50219   0.69504   0.53505   1.000
    O794    O    0.31002   0.17535   0.52308   1.000
    O795    O    0.26492   0.12309   0.53682   1.000
    O796    O    0.81001   0.17535   0.52308   1.000
    O797    O    0.76491   0.12309   0.53682   1.000
    O798    O    0.80179   0.84826   0.52192   1.000
    O799    O    0.75934   0.80181   0.53429   1.000
    O800    O    0.30180   0.84825   0.52192   1.000
    O801    O    0.25935   0.80181   0.53429   1.000
    O802    O    0.70285   0.38464   0.53656   1.000
    O803    O    0.20286   0.38464   0.53656   1.000
    O804    O    0.85913   0.86191   0.54531   1.000
    O805    O    0.35914   0.86191   0.54531   1.000
    O806    O    0.60064   0.41796   0.55689   1.000
    O807    O    0.53615   0.39047   0.56269   1.000
    O808    O    0.10065   0.41796   0.55690   1.000
    O809    O    0.03344   0.39047   0.56269   1.000
    O810    O    0.16803   0.42665   0.55768   1.000
    O811    O    0.23336   0.43421   0.55787   1.000
    O812    O    0.66802   0.42665   0.55767   1.000
    O813    O    0.73336   0.43420   0.55787   1.000
    O814    O    0.71891   0.06978   0.55272   1.000
    O815    O    0.67079   0.01656   0.57014   1.000
    O816    O    0.21891   0.06978   0.55272   1.000
    O817    O    0.17080   0.01656   0.57014   1.000
    O818    O    0.29087   0.44478   0.55946   1.000
    O819    O    0.79087   0.44478   0.55946   1.000
    O820    O    0.27103   0.08304   0.56928   1.000
    O821    O    0.77102   0.08304   0.56928   1.000
    O822    O    0.97108   0.36408   0.56894   1.000
    O823    O    0.91906   0.33813   0.57239   1.000
    O824    O    0.47380   0.36408   0.56894   1.000
    O825    O    0.41907   0.33813   0.57239   1.000
    O826    O    0.63394   0.47637   0.58292   1.000
    O827    O    0.13395   0.47636   0.58293   1.000
    O828    O    0.76449   0.49083   0.58349   1.000
    O829    O    0.26450   0.49083   0.58349   1.000
    O830    O    0.91025   0.88217   0.56847   1.000
    O831    O    0.87558   0.82103   0.58127   1.000
    O832    O    0.41026   0.88217   0.56847   1.000
    O833    O    0.37559   0.82103   0.58127   1.000
    O834    O    0.47065   0.90278   0.59561   1.000
    O835    O    0.97065   0.90278   0.59561   1.000
    O836    O    0.00000   0.39756   0.59616   1.000
    O837    O    0.50659   0.39756   0.59615   1.000
    O838    O    0.62330   0.97705   0.59126   1.000
    O839    O    0.68012   0.96536   0.60318   1.000
    O840    O    0.12331   0.97705   0.59126   1.000
    O841    O    0.18013   0.96536   0.60318   1.000
    O842    O    0.35404   0.56861   0.60508   1.000
    O843    O    0.85403   0.56861   0.60508   1.000
    O844    O    0.54641   0.93199   0.60719   1.000
    O845    O    0.04641   0.93199   0.60719   1.000
    O846    O    0.10780   0.52438   0.60617   1.000
    O847    O    0.16529   0.53325   0.60855   1.000
    O848    O    0.60779   0.52438   0.60617   1.000
    O849    O    0.66528   0.53325   0.60852   1.000
    O850    O    0.73050   0.54017   0.60890   1.000
    O851    O    0.79827   0.54861   0.60971   1.000
    O852    O    0.23050   0.54017   0.60893   1.000
    O853    O    0.29827   0.54861   0.60971   1.000
    O854    O    0.69611   0.58201   0.63033   1.000
    O855    O    0.17690   0.91278   0.64173   1.000
    O856    O    0.67689   0.91278   0.64173   1.000
    O857    O    0.19612   0.58200   0.63036   1.000
    O858    O    0.32951   0.60764   0.62289   1.000
    O859    O    0.34406   0.54715   0.64048   1.000
    O860    O    0.82950   0.60764   0.62289   1.000
    O861    O    0.84406   0.54715   0.64048   1.000
    O862    O    0.52803   0.83361   0.62504   1.000
    O863    O    0.49687   0.91225   0.65534   1.000
    O864    O    0.02804   0.83361   0.62544   1.000
    O865    O    0.99687   0.91226   0.65534   1.000
    O866    O    0.56316   0.75034   0.64785   1.000
    O867    O    0.06317   0.75034   0.64825   1.000
    O868    O    0.95403   0.64728   0.64853   1.000
    O869    O    0.45404   0.64728   0.64853   1.000
    O870    O    0.88807   0.53695   0.67139   1.000
    O871    O    0.38808   0.53695   0.67139   1.000
    O872    O    0.94203   0.58792   0.67170   1.000
    O873    O    0.99716   0.63550   0.67337   1.000
    O874    O    0.44204   0.58792   0.67170   1.000
    O875    O    0.49716   0.63550   0.67337   1.000
    O876    O    0.14083   0.81649   0.67800   1.000
    O877    O    0.12837   0.92031   0.68950   1.000
    O878    O    0.64082   0.81649   0.67800   1.000
    O879    O    0.62836   0.92031   0.68950   1.000
    O880    O    0.05221   0.68678   0.67529   1.000
    O881    O    0.10229   0.74074   0.67820   1.000
    O882    O    0.55220   0.68678   0.67529   1.000
    O883    O    0.60228   0.74074   0.67820   1.000
    O884    O    0.93272   0.52534   0.70038   1.000
    O885    O    0.43272   0.52534   0.70038   1.000
    O886    O    0.54377   0.61921   0.70277   1.000
    O887    O    0.04378   0.61921   0.70277   1.000
    O888    O    0.01430   0.94839   0.70365   1.000
    O889    O    0.51430   0.94839   0.70367   1.000
    O890    O    0.07212   0.96396   0.71520   1.000
    O891    O    0.57212   0.96396   0.71522   1.000
    O892    O    0.02548   0.99344   0.73887   1.000
    O893    O    0.52547   0.99344   0.73889   1.000
    O894    O    0.92753   0.47219   0.72764   1.000
    O895    O    0.97865   0.51014   0.73019   1.000
    O896    O    0.42754   0.47219   0.72764   1.000
    O897    O    0.47865   0.51014   0.73019   1.000
    O898    O    0.58292   0.60050   0.72944   1.000
    O899    O    0.53457   0.55643   0.73091   1.000
    O900    O    0.08293   0.60050   0.72944   1.000
    O901    O    0.03458   0.55643   0.73091   1.000
    O902    O    0.02521   0.49337   0.76125   1.000
    O903    O    0.52520   0.49337   0.76125   1.000
    O904    O    0.03494   0.05648   0.76916   1.000
    O905    O    0.97902   0.01016   0.77017   1.000
    O906    O    0.53494   0.05649   0.76916   1.000
    O907    O    0.47902   0.01016   0.77017   1.000
    O908    O    0.08329   0.10059   0.77036   1.000
    O909    O    0.58329   0.10059   0.77036   1.000
    O910    O    0.42792   0.97218   0.77297   1.000
    O911    O    0.92792   0.97218   0.77298   1.000
    O912    O    0.54422   0.11918   0.79725   1.000
    O913    O    0.04423   0.11918   0.79725   1.000
    O914    O    0.93319   0.02525   0.80020   1.000
    O915    O    0.43320   0.02525   0.80020   1.000
    O916    O    0.57190   0.46391   0.78475   1.000
    O917    O    0.51409   0.44826   0.79650   1.000
    O918    O    0.07191   0.46391   0.78475   1.000
    O919    O    0.01409   0.44826   0.79650   1.000
    O920    O    0.62829   0.42034   0.81032   1.000
    O921    O    0.12830   0.42034   0.81032   1.000
    O922    O    0.10268   0.24077   0.82167   1.000
    O923    O    0.14109   0.31659   0.82180   1.000
    O924    O    0.60267   0.24077   0.82167   1.000
    O925    O    0.64108   0.31659   0.82180   1.000
    O926    O    0.49681   0.41208   0.84485   1.000
    O927    O    0.99681   0.41208   0.84485   1.000
    O928    O    0.55263   0.18670   0.82471   1.000
    O929    O    0.49772   0.13533   0.82688   1.000
    O930    O    0.05264   0.18670   0.82471   1.000
    O931    O    0.99772   0.13533   0.82688   1.000
    O932    O    0.94261   0.08773   0.82883   1.000
    O933    O    0.88865   0.03682   0.82945   1.000
    O934    O    0.44262   0.08773   0.82883   1.000
    O935    O    0.38866   0.03682   0.82944   1.000
    O936    O    0.56343   0.25024   0.85167   1.000
    O937    O    0.06344   0.25024   0.85167   1.000
    O938    O    0.17730   0.41387   0.85742   1.000
    O939    O    0.67730   0.41387   0.85742   1.000
    O940    O    0.95473   0.14697   0.85195   1.000
    O941    O    0.45474   0.14697   0.85195   1.000
    O942    O    0.34470   0.04723   0.86048   1.000
    O943    O    0.84470   0.04723   0.86049   1.000
    O944    O    0.69694   0.08354   0.87072   1.000
    O945    O    0.19695   0.08354   0.87072   1.000
    O946    O    0.02818   0.33346   0.87458   1.000
    O947    O    0.52817   0.33346   0.87458   1.000
    O948    O    0.83035   0.10793   0.87793   1.000
    O949    O    0.33036   0.10793   0.87793   1.000
    O950    O    0.54681   0.43153   0.89264   1.000
    O951    O    0.47169   0.40275   0.90517   1.000
    O952    O    0.04682   0.43153   0.89264   1.000
    O953    O    0.97169   0.40275   0.90517   1.000
    O954    O    0.68077   0.46678   0.89558   1.000
    O955    O    0.18078   0.46679   0.89559   1.000
    O956    O    0.79880   0.04908   0.89119   1.000
    O957    O    0.85460   0.06875   0.89582   1.000
    O958    O    0.29880   0.04908   0.89120   1.000
    O959    O    0.35461   0.06875   0.89582   1.000
    O960    O    0.23102   0.04117   0.89203   1.000
    O961    O    0.16581   0.03457   0.89236   1.000
    O962    O    0.73101   0.04118   0.89202   1.000
    O963    O    0.66580   0.03457   0.89236   1.000
    O964    O    0.50668   0.89917   0.90419   1.000
    O965    O    0.00000   0.89917   0.90419   1.000
    O966    O    0.10828   0.02591   0.89470   1.000
    O967    O    0.60827   0.02591   0.89470   1.000
    O968    O    0.76466   0.99124   0.91731   1.000
    O969    O    0.26467   0.99124   0.91732   1.000
    O970    O    0.13412   0.97735   0.91776   1.000
    O971    O    0.63412   0.97735   0.91776   1.000
    O972    O    0.87804   0.32087   0.92021   1.000
    O973    O    0.37805   0.32087   0.92021   1.000
    O974    O    0.62396   0.47705   0.90801   1.000
    O975    O    0.12397   0.47705   0.90802   1.000
    O976    O    0.67115   0.51717   0.92890   1.000
    O977    O    0.17116   0.51717   0.92891   1.000
    O978    O    0.77146   0.58350   0.93018   1.000
    O979    O    0.27147   0.58351   0.93018   1.000
    O980    O    0.91892   0.83946   0.92769   1.000
    O981    O    0.41893   0.83946   0.92771   1.000
    O982    O    0.47366   0.86524   0.93128   1.000
    O983    O    0.53599   0.89135   0.93762   1.000
    O984    O    0.97097   0.86524   0.93128   1.000
    O985    O    0.03331   0.89135   0.93762   1.000
    O986    O    0.91228   0.38220   0.93296   1.000
    O987    O    0.41229   0.38220   0.93296   1.000
    O988    O    0.29073   0.94470   0.94122   1.000
    O989    O    0.23319   0.93430   0.94274   1.000
    O990    O    0.79072   0.94471   0.94123   1.000
    O991    O    0.73318   0.93431   0.94271   1.000
    O992    O    0.36077   0.36182   0.95594   1.000
    O993    O    0.66785   0.92701   0.94282   1.000
    O994    O    0.60049   0.91853   0.94354   1.000
    O995    O    0.86076   0.36182   0.95594   1.000
    O996    O    0.16786   0.92701   0.94284   1.000
    O997    O    0.10049   0.91853   0.94354   1.000
    O998    O    0.93960   0.82656   0.96347   1.000
    O999    O    0.43961   0.82656   0.96347   1.000
    O1000   O    0.71907   0.57022   0.94651   1.000
    O1001   O    0.76486   0.62332   0.96261   1.000
    O1002   O    0.21908   0.57022   0.94651   1.000
    O1003   O    0.26486   0.62332   0.96265   1.000
    O1004   O    0.50312   0.19590   0.96491   1.000
    O1005   O    0.00313   0.19591   0.96494   1.000
    O1006   O    0.16192   0.55868   0.96743   1.000
    O1007   O    0.66191   0.55867   0.96740   1.000
    O1008   O    0.70238   0.88447   0.96381   1.000
    O1009   O    0.20239   0.88447   0.96384   1.000
    O1010   O    0.76061   0.30193   0.96634   1.000
    O1011   O    0.26062   0.30193   0.96634   1.000
    O1012   O    0.06417   0.87790   0.97598   1.000
    O1013   O    0.56416   0.87790   0.97598   1.000
    O1014   O    0.12757   0.24913   0.97558   1.000
    O1015   O    0.62756   0.24914   0.97558   1.000
    O1016   O    0.30980   0.67532   0.97665   1.000
    O1017   O    0.80979   0.67532   0.97661   1.000
    O1018   O    0.30291   0.34821   0.97895   1.000
    O1019   O    0.80290   0.34821   0.97895   1.000
    O1020   O    0.61258   0.55132   0.98805   1.000
    O1021   O    0.11259   0.55132   0.98808   1.000
    O1022   O    0.65239   0.20821   0.99184   1.000
    O1023   O    0.15240   0.20821   0.99185   1.000
loop_
    _geom_bond_atom_site_label_1
    _geom_bond_atom_site_label_2
    _geom_bond_distance
    _geom_bond_site_symmetry_2
    _ccdc_geom_bond_type
    C381   O480      0.70203      .   S
    C371   O480      0.70203      .   S
    C381   O481      0.54428  1_554   S
    C149   O481      0.54428      .   S
    C381   O482      0.69635  1_554   S
    C378   O482      0.69635  1_455   S
    C380   O483      0.70203      .   S
    C370   O483      0.70203      .   S
    C380   O484      0.54428  1_554   S
    C148   O484      0.54428      .   S
    C380   O485      0.69622  1_554   S
    C379   O485      0.69622      .   S
    C263   O486      0.55240      .   S
    C81    O486      0.55240      .   S
    C263   O487      0.55102      .   S
    C79    O487      0.55102      .   S
    C263   O488      0.72142  1_554   S
    C427   O488      0.72142      .   S
    C263   O489      0.75151  1_554   S
    C257   O489      0.75151      .   S
    C262   O490      0.55239      .   S
    C80    O490      0.55239      .   S
    C262   O491      0.55102      .   S
    C78    O491      0.55102      .   S
    C262   O492      0.72141  1_554   S
    C426   O492      0.72141      .   S
    C262   O493      0.75152  1_554   S
    C256   O493      0.75152      .   S
    C157   O494      0.54302      .   S
    C391   O494      0.54302      .   S
    C156   O495      0.54303      .   S
    C390   O495      0.54303      .   S
    C377   O496      0.70153      .   S
    C375   O496      0.70153      .   S
    C377   O497      0.69916  1_554   S
    C379   O497      0.69916      .   S
    C377   O498      0.75152      .   S
    C383   O498      0.75152  1_556   S
    C376   O499      0.70154      .   S
    C374   O499      0.70154      .   S
    C376   O500      0.69916  1_554   S
    C378   O500      0.69916      .   S
    C376   O501      0.75151      .   S
    C382   O501      0.75151  1_556   S
    C391   O502      0.70119      .   S
    C389   O502      0.70119      .   S
    C391   O503      0.69670  1_554   S
    C393   O503      0.69670      .   S
    C390   O504      0.70118      .   S
    C388   O504      0.70118      .   S
    C390   O505      0.69669  1_554   S
    C392   O505      0.69669      .   S
    C258   O506      0.54474      .   S
    C74    O506      0.54474      .   S
    C258   O507      0.69914      .   S
    C256   O507      0.69914  1_556   S
    C258   O508      0.69624      .   S
    C261   O508      0.69624  1_556   S
    C259   O509      0.54474      .   S
    C75    O509      0.54474      .   S
    C259   O510      0.69915      .   S
    C257   O510      0.69915  1_556   S
    C259   O511      0.69635  1_655   S
    C260   O511      0.69635  1_556   S
    C275   O512      0.70255      .   S
    C273   O512      0.70255      .   S
    C275   O513      0.54394      .   S
    C87    O513      0.54394      .   S
    C275   O514      0.70141  1_554   S
    C265   O514      0.70141      .   S
    C274   O515      0.70255      .   S
    C272   O515      0.70255      .   S
    C274   O516      0.54393      .   S
    C86    O516      0.54393      .   S
    C274   O517      0.70056  1_554   S
    C264   O517      0.70056      .   S
    C385   O518      0.68381      .   S
    C467   O518      0.68381      .   S
    C385   O519      0.70191      .   S
    C387   O519      0.70191      .   S
    C385   O520      0.70044      .   S
    C395   O520      0.70044  1_556   S
    C384   O521      0.68381      .   S
    C466   O521      0.68381      .   S
    C384   O522      0.70191      .   S
    C386   O522      0.70191      .   S
    C384   O523      0.70044      .   S
    C394   O523      0.70044  1_556   S
    C273   O524      0.75039      .   S
    C279   O524      0.75039      .   S
    C273   O525      0.69738      .   S
    C271   O525      0.69738  1_556   S
    C272   O526      0.75039      .   S
    C278   O526      0.75039      .   S
    C272   O527      0.69679      .   S
    C270   O527      0.69679  1_556   S
    C77    O528      0.54427      .   S
    C261   O528      0.54427  1_556   S
    C76    O529      0.54427      .   S
    C260   O529      0.54427  1_556   S
    C138   O530      0.54553      .   S
    C366   O530      0.54553      .   S
    C139   O531      0.54499      .   S
    C367   O531      0.54499      .   S
    C466   O532      0.72143      .   S
    C382   O532      0.72143  1_556   S
    C467   O533      0.72143      .   S
    C383   O533      0.72143  1_556   S
    C371   O534      0.73957      .   S
    C365   O534      0.73957      .   S
    C371   O535      0.70415      .   S
    C372   O535      0.70415      .   S
    C370   O536      0.73957      .   S
    C364   O536      0.73957      .   S
    C370   O537      0.70241      .   S
    C373   O537      0.70241      .   S
    C366   O538      0.70316      .   S
    C364   O538      0.70316      .   S
    C366   O539      0.69563      .   S
    C368   O539      0.69563      .   S
    C367   O540      0.70313      .   S
    C365   O540      0.70313      .   S
    C367   O541      0.69558      .   S
    C369   O541      0.69558      .   S
    C140   O542      0.54500      .   S
    C368   O542      0.54500      .   S
    C141   O543      0.54496      .   S
    C369   O543      0.54496      .   S
    C388   O544      0.69831      .   S
    C386   O544      0.69831      .   S
    C388   O545      0.74148      .   S
    C396   O545      0.74148      .   S
    C389   O546      0.69830      .   S
    C387   O546      0.69830      .   S
    C389   O547      0.74148      .   S
    C397   O547      0.74148      .   S
    C387   O548      0.54428      .   S
    C155   O548      0.54428      .   S
    C386   O549      0.54428      .   S
    C154   O549      0.54428      .   S
    C374   O550      0.69598      .   S
    C372   O550      0.69598  1_655   S
    C374   O551      0.54518      .   S
    C144   O551      0.54518      .   S
    C375   O552      0.69506      .   S
    C373   O552      0.69506      .   S
    C375   O553      0.54517      .   S
    C145   O553      0.54517      .   S
    C279   O554      0.65588      .   S
    C431   O554      0.65588      .   S
    C279   O555      0.62225      .   S
    C429   O555      0.62225      .   S
    C278   O556      0.65588      .   S
    C430   O556      0.65588      .   S
    C278   O557      0.62226      .   S
    C428   O557      0.62226      .   S
    C364   O558      0.70375      .   S
    C362   O558      0.70375  1_565   S
    C365   O559      0.70375      .   S
    C363   O559      0.70375  1_565   S
    C369   O560      0.70053      .   S
    C359   O560      0.70053  1_565   S
    C368   O561      0.69986      .   S
    C358   O561      0.69986  1_565   S
    C431   O562      0.94295      .   S
    C14    O562      0.94295      .   S
    C430   O563      0.94304      .   S
    C15    O563      0.94304  1_655   S
    C373   O564      0.54774      .   S
    C143   O564      0.54774      .   S
    C372   O565      0.54526      .   S
    C142   O565      0.54526      .   S
    C396   O566      0.63467      .   S
    C472   O566      0.63467      .   S
    C396   O567      0.64928      .   S
    C478   O567      0.64928      .   S
    C397   O568      0.63467      .   S
    C473   O568      0.63467      .   S
    C397   O569      0.64929      .   S
    C479   O569      0.64929      .   S
    C132   O570      0.55044      .   S
    C356   O570      0.55044      .   S
    C133   O571      0.55035      .   S
    C357   O571      0.55035      .   S
    C472   O572      1.02804      .   S
    C14    O572      1.02804      .   S
    C473   O573      1.02804      .   S
    C15    O573      1.02804      .   S
    C362   O574      0.54452      .   S
    C136   O574      0.54452      .   S
    C362   O575      0.69649      .   S
    C360   O575      0.69649      .   S
    C363   O576      0.54453      .   S
    C137   O576      0.54453      .   S
    C363   O577      0.69627      .   S
    C361   O577      0.69627      .   S
    C358   O578      0.70119      .   S
    C360   O578      0.70119      .   S
    C358   O579      0.74898      .   S
    C356   O579      0.74898      .   S
    C359   O580      0.70065      .   S
    C361   O580      0.70065      .   S
    C359   O581      0.74861      .   S
    C357   O581      0.74861      .   S
    C361   O582      0.54630      .   S
    C135   O582      0.54630      .   S
    C360   O583      0.54574      .   S
    C134   O583      0.54574      .   S
    C357   O584      0.54955      .   S
    C131   O584      0.54955      .   S
    C357   O585      0.73123      .   S
    C465   O585      0.73123      .   S
    C356   O586      0.54951      .   S
    C130   O586      0.54951      .   S
    C356   O587      0.73102      .   S
    C464   O587      0.73102      .   S
    C479   O588      0.95759      .   S
    C13    O588      0.95759      .   S
    C478   O589      0.95759      .   S
    C12    O589      0.95759      .   S
    C14    O590      1.02107      .   S
    C462   O590      1.02107      .   S
    C14    O591      0.98995      .   S
    C417   O591      0.98995      .   S
    C15    O592      1.02107      .   S
    C463   O592      1.02107      .   S
    C15    O593      0.98996  1_655   S
    C416   O593      0.98996      .   S
    C463   O594      0.64097      .   S
    C353   O594      0.64097      .   S
    C462   O595      0.64096      .   S
    C352   O595      0.64096      .   S
    C125   O596      0.54382      .   S
    C343   O596      0.54382      .   S
    C124   O597      0.54382      .   S
    C342   O597      0.54382      .   S
    C464   O598      0.68020      .   S
    C344   O598      0.68020      .   S
    C465   O599      0.68016      .   S
    C345   O599      0.68016      .   S
    C343   O600      0.70083      .   S
    C345   O600      0.70083      .   S
    C343   O601      0.70336      .   S
    C340   O601      0.70336      .   S
    C342   O602      0.70083      .   S
    C344   O602      0.70083      .   S
    C342   O603      0.70349      .   S
    C341   O603      0.70349  1_655   S
    C12    O604      0.97630      .   S
    C460   O604      0.97630      .   S
    C12    O605      0.98080      .   S
    C414   O605      0.98080      .   S
    C13    O606      0.97631      .   S
    C461   O606      0.97631      .   S
    C13    O607      0.98079      .   S
    C415   O607      0.98079      .   S
    C352   O608      0.73894      .   S
    C340   O608      0.73894      .   S
    C352   O609      0.64493      .   S
    C460   O609      0.64493      .   S
    C353   O610      0.73894      .   S
    C341   O610      0.73894      .   S
    C353   O611      0.64493      .   S
    C461   O611      0.64493      .   S
    C344   O612      0.70326      .   S
    C346   O612      0.70326  1_545   S
    C345   O613      0.70337      .   S
    C347   O613      0.70337  1_545   S
    C340   O614      0.69895      .   S
    C350   O614      0.69895      .   S
    C341   O615      0.69896      .   S
    C351   O615      0.69896      .   S
    C416   O616      0.63854  1_455   S
    C175   O616      0.63854      .   S
    C417   O617      0.63844      .   S
    C174   O617      0.63844      .   S
    C415   O618      0.63984      .   S
    C175   O618      0.63984      .   S
    C414   O619      0.63984      .   S
    C174   O619      0.63984      .   S
    C175   O620      0.74701      .   S
    C169   O620      0.74701      .   S
    C174   O621      0.74702      .   S
    C168   O621      0.74702      .   S
    C346   O622      0.54453      .   S
    C126   O622      0.54453      .   S
    C346   O623      0.69915  1_545   S
    C349   O623      0.69915  1_655   S
    C347   O624      0.54427      .   S
    C127   O624      0.54427      .   S
    C347   O625      0.69897  1_545   S
    C348   O625      0.69897      .   S
    C351   O626      0.54342      .   S
    C129   O626      0.54342      .   S
    C351   O627      0.70027      .   S
    C349   O627      0.70027      .   S
    C350   O628      0.54343      .   S
    C128   O628      0.54343      .   S
    C350   O629      0.70027      .   S
    C348   O629      0.70027      .   S
    C348   O630      0.74694  1_565   S
    C354   O630      0.74694      .   S
    C349   O631      0.74694  1_565   S
    C355   O631      0.74694      .   S
    C168   O632      0.70009      .   S
    C170   O632      0.70009      .   S
    C168   O633      0.69882      .   S
    C167   O633      0.69882      .   S
    C169   O634      0.70009      .   S
    C171   O634      0.70009      .   S
    C169   O635      0.69895  1_655   S
    C166   O635      0.69895      .   S
    C20    O636      0.54338      .   S
    C170   O636      0.54338      .   S
    C21    O637      0.54338      .   S
    C171   O637      0.54338      .   S
    C19    O638      0.54452      .   S
    C167   O638      0.54452      .   S
    C18    O639      0.54453      .   S
    C166   O639      0.54453      .   S
    C171   O640      0.69896      .   S
    C161   O640      0.69896      .   S
    C170   O641      0.69896      .   S
    C160   O641      0.69896      .   S
    C166   O642      0.70311      .   S
    C164   O642      0.70311      .   S
    C167   O643      0.70311      .   S
    C165   O643      0.70311      .   S
    C354   O644      0.64025      .   S
    C474   O644      0.64025      .   S
    C354   O645      0.63863      .   S
    C477   O645      0.63863      .   S
    C355   O646      0.64025      .   S
    C475   O646      0.64025      .   S
    C355   O647      0.63873      .   S
    C476   O647      0.63873  1_455   S
    C474   O648      0.98011      .   S
    C0     O648      0.98011      .   S
    C475   O649      0.98011      .   S
    C1     O649      0.98011      .   S
    C401   O650      0.64543      .   S
    C173   O650      0.64543      .   S
    C401   O651      0.97654      .   S
    C1     O651      0.97654      .   S
    C400   O652      0.64543      .   S
    C172   O652      0.64543      .   S
    C400   O653      0.97654      .   S
    C0     O653      0.97654      .   S
    C476   O654      0.99150      .   S
    C3     O654      0.99150  1_655   S
    C477   O655      0.99148      .   S
    C2     O655      0.99148      .   S
    C161   O656      0.73890      .   S
    C173   O656      0.73890      .   S
    C161   O657      0.70360  1_655   S
    C162   O657      0.70360      .   S
    C160   O658      0.73890      .   S
    C172   O658      0.73890      .   S
    C160   O659      0.70347      .   S
    C163   O659      0.70347      .   S
    C165   O660      0.70095      .   S
    C163   O660      0.70095      .   S
    C165   O661      0.68014      .   S
    C405   O661      0.68014      .   S
    C164   O662      0.70095      .   S
    C162   O662      0.70095      .   S
    C164   O663      0.68014      .   S
    C404   O663      0.68014      .   S
    C172   O664      0.64121      .   S
    C402   O664      0.64121      .   S
    C173   O665      0.64122      .   S
    C403   O665      0.64122      .   S
    C1     O666      0.95735      .   S
    C419   O666      0.95735      .   S
    C0     O667      0.95735      .   S
    C418   O667      0.95735      .   S
    C162   O668      0.54382      .   S
    C16    O668      0.54382      .   S
    C163   O669      0.54382      .   S
    C17    O669      0.54382      .   S
    C405   O670      0.73121      .   S
    C177   O670      0.73121      .   S
    C404   O671      0.73122      .   S
    C176   O671      0.73122      .   S
    C26    O672      0.54586      .   S
    C180   O672      0.54586      .   S
    C27    O673      0.54579      .   S
    C181   O673      0.54579      .   S
    C403   O674      1.02045      .   S
    C3     O674      1.02045      .   S
    C402   O675      1.02045      .   S
    C2     O675      1.02045      .   S
    C22    O676      0.54948      .   S
    C176   O676      0.54948      .   S
    C23    O677      0.54948      .   S
    C177   O677      0.54948      .   S
    C3     O678      1.02622      .   S
    C413   O678      1.02622      .   S
    C3     O679      0.94224  1_655   S
    C450   O679      0.94224      .   S
    C2     O680      1.02623      .   S
    C412   O680      1.02623      .   S
    C2     O681      0.94213      .   S
    C451   O681      0.94213      .   S
    C176   O682      0.74896      .   S
    C178   O682      0.74896      .   S
    C176   O683      0.55051      .   S
    C24    O683      0.55051      .   S
    C177   O684      0.74896      .   S
    C179   O684      0.74896      .   S
    C177   O685      0.55052      .   S
    C25    O685      0.55052      .   S
    C180   O686      0.70095      .   S
    C178   O686      0.70095      .   S
    C180   O687      0.69658      .   S
    C182   O687      0.69658      .   S
    C418   O688      0.64940      .   S
    C216   O688      0.64940      .   S
    C419   O689      0.64940      .   S
    C217   O689      0.64940      .   S
    C181   O690      0.70092      .   S
    C179   O690      0.70092      .   S
    C181   O691      0.69653      .   S
    C183   O691      0.69653      .   S
    C35    O692      0.54520      .   S
    C193   O692      0.54520      .   S
    C34    O693      0.54521      .   S
    C192   O693      0.54521      .   S
    C29    O694      0.54454      .   S
    C183   O694      0.54454      .   S
    C28    O695      0.54452      .   S
    C182   O695      0.54452      .   S
    C179   O696      0.70050      .   S
    C189   O696      0.70050      .   S
    C178   O697      0.70047      .   S
    C188   O697      0.70047      .   S
    C183   O698      0.70369      .   S
    C185   O698      0.70369      .   S
    C182   O699      0.70365      .   S
    C184   O699      0.70365      .   S
    C448   O700      0.62134      .   S
    C338   O700      0.62134      .   S
    C449   O701      0.62213      .   S
    C339   O701      0.62213      .   S
    C413   O702      0.63486      .   S
    C217   O702      0.63486      .   S
    C412   O703      0.63486      .   S
    C216   O703      0.63486      .   S
    C217   O704      0.74205  1_545   S
    C209   O704      0.74205      .   S
    C216   O705      0.74207  1_545   S
    C208   O705      0.74207      .   S
    C37    O706      0.54528      .   S
    C195   O706      0.54528      .   S
    C36    O707      0.54520      .   S
    C194   O707      0.54520      .   S
    C46    O708      0.54408      .   S
    C206   O708      0.54408      .   S
    C47    O709      0.54408      .   S
    C207   O709      0.54408      .   S
    C192   O710      0.69601  1_655   S
    C194   O710      0.69601      .   S
    C192   O711      0.70400      .   S
    C191   O711      0.70400      .   S
    C193   O712      0.69592      .   S
    C195   O712      0.69592      .   S
    C193   O713      0.70396      .   S
    C190   O713      0.70396      .   S
    C450   O714      0.65594      .   S
    C338   O714      0.65594      .   S
    C451   O715      0.65603      .   S
    C339   O715      0.65603      .   S
    C338   O716      0.75206      .   S
    C332   O716      0.75206      .   S
    C339   O717      0.75107      .   S
    C333   O717      0.75107      .   S
    C188   O718      0.54474      .   S
    C32    O718      0.54474      .   S
    C188   O719      0.69579      .   S
    C186   O719      0.69579      .   S
    C189   O720      0.54503      .   S
    C33    O720      0.54503      .   S
    C189   O721      0.69575      .   S
    C187   O721      0.69575      .   S
    C185   O722      0.70314      .   S
    C187   O722      0.70314      .   S
    C185   O723      0.73971      .   S
    C191   O723      0.73971      .   S
    C184   O724      0.70318      .   S
    C186   O724      0.70318      .   S
    C184   O725      0.73975      .   S
    C190   O725      0.73975      .   S
    C195   O726      0.70170      .   S
    C197   O726      0.70170      .   S
    C194   O727      0.70146      .   S
    C196   O727      0.70146      .   S
    C206   O728      0.69839      .   S
    C208   O728      0.69839      .   S
    C206   O729      0.70205      .   S
    C204   O729      0.70205      .   S
    C207   O730      0.69840      .   S
    C209   O730      0.69840      .   S
    C207   O731      0.70205      .   S
    C205   O731      0.70205      .   S
    C110   O732      0.54489      .   S
    C318   O732      0.54489      .   S
    C111   O733      0.54489      .   S
    C319   O733      0.54489      .   S
    C209   O734      0.70136      .   S
    C211   O734      0.70136      .   S
    C208   O735      0.70137      .   S
    C210   O735      0.70137      .   S
    C187   O736      0.54502      .   S
    C31    O736      0.54502      .   S
    C186   O737      0.54499      .   S
    C30    O737      0.54499      .   S
    C123   O738      0.54391      .   S
    C335   O738      0.54391      .   S
    C122   O739      0.54391      .   S
    C334   O739      0.54391      .   S
    C191   O740      0.70232      .   S
    C201   O740      0.70232      .   S
    C190   O741      0.70218      .   S
    C200   O741      0.70218      .   S
    C115   O742      0.55098      .   S
    C323   O742      0.55098      .   S
    C114   O743      0.55098      .   S
    C322   O743      0.55098      .   S
    C407   O744      0.68413      .   S
    C205   O744      0.68413      .   S
    C407   O745      0.72219      .   S
    C203   O745      0.72219      .   S
    C406   O746      0.68413      .   S
    C204   O746      0.68413      .   S
    C406   O747      0.72218      .   S
    C202   O747      0.72218      .   S
    C332   O748      0.70248      .   S
    C334   O748      0.70248      .   S
    C332   O749      0.69692      .   S
    C330   O749      0.69692      .   S
    C333   O750      0.70249      .   S
    C335   O750      0.70249      .   S
    C333   O751      0.69692      .   S
    C331   O751      0.69692      .   S
    C112   O752      0.54495      .   S
    C320   O752      0.54495      .   S
    C113   O753      0.54437      .   S
    C321   O753      0.54437      .   S
    C335   O754      0.70036      .   S
    C325   O754      0.70036      .   S
    C334   O755      0.70035      .   S
    C324   O755      0.70035      .   S
    C204   O756      0.70036      .   S
    C214   O756      0.70036      .   S
    C205   O757      0.70036      .   S
    C215   O757      0.70036      .   S
    C319   O758      0.69648  1_655   S
    C320   O758      0.69648      .   S
    C319   O759      0.69918      .   S
    C317   O759      0.69918      .   S
    C318   O760      0.69636      .   S
    C321   O760      0.69636      .   S
    C318   O761      0.69918      .   S
    C316   O761      0.69918      .   S
    C197   O762      0.75166      .   S
    C203   O762      0.75166      .   S
    C197   O763      0.69917      .   S
    C199   O763      0.69917      .   S
    C196   O764      0.75166      .   S
    C202   O764      0.75166      .   S
    C196   O765      0.69918      .   S
    C198   O765      0.69918      .   S
    C210   O766      0.54303      .   S
    C48    O766      0.54303      .   S
    C210   O767      0.69692      .   S
    C212   O767      0.69692      .   S
    C211   O768      0.54304      .   S
    C49    O768      0.54304      .   S
    C211   O769      0.69692      .   S
    C213   O769      0.69692      .   S
    C117   O770      0.55251      .   S
    C323   O770      0.55251      .   S
    C116   O771      0.55247      .   S
    C322   O771      0.55247      .   S
    C322   O772      0.75165      .   S
    C316   O772      0.75165      .   S
    C322   O773      0.72145      .   S
    C446   O773      0.72145      .   S
    C323   O774      0.75165      .   S
    C317   O774      0.75165      .   S
    C323   O775      0.72145      .   S
    C447   O775      0.72145      .   S
    C201   O776      0.69648      .   S
    C198   O776      0.69648  1_455   S
    C201   O777      0.54437      .   S
    C41    O777      0.54437      .   S
    C200   O778      0.69636      .   S
    C199   O778      0.69636      .   S
    C200   O779      0.54437      .   S
    C40    O779      0.54437      .   S
    C320   O780      0.70218      .   S
    C310   O780      0.70218      .   S
    C321   O781      0.70218      .   S
    C311   O781      0.70218      .   S
    C202   O782      0.55247      .   S
    C44    O782      0.55247      .   S
    C202   O783      0.55096      .   S
    C42    O783      0.55096      .   S
    C203   O784      0.55247      .   S
    C45    O784      0.55247      .   S
    C203   O785      0.55096      .   S
    C43    O785      0.55096      .   S
    C121   O786      0.54307      .   S
    C331   O786      0.54307      .   S
    C120   O787      0.54304      .   S
    C330   O787      0.54304      .   S
    C330   O788      0.70135      .   S
    C328   O788      0.70135      .   S
    C331   O789      0.70136      .   S
    C329   O789      0.70136      .   S
    C316   O790      0.70157      .   S
    C314   O790      0.70157      .   S
    C317   O791      0.70157      .   S
    C315   O791      0.70157      .   S
    C198   O792      0.54490      .   S
    C38    O792      0.54490      .   S
    C199   O793      0.54489      .   S
    C39    O793      0.54489      .   S
    C324   O794      0.68396      .   S
    C446   O794      0.68396      .   S
    C324   O795      0.70195      .   S
    C326   O795      0.70195      .   S
    C325   O796      0.68397      .   S
    C447   O796      0.68397      .   S
    C325   O797      0.70195      .   S
    C327   O797      0.70195      .   S
    C215   O798      0.70249      .   S
    C213   O798      0.70249      .   S
    C215   O799      0.54391      .   S
    C51    O799      0.54391      .   S
    C214   O800      0.70249      .   S
    C212   O800      0.70249      .   S
    C214   O801      0.54391      .   S
    C50    O801      0.54391      .   S
    C103   O802      0.54502      .   S
    C307   O802      0.54502      .   S
    C102   O803      0.54501      .   S
    C306   O803      0.54501      .   S
    C213   O804      0.75118      .   S
    C219   O804      0.75118      .   S
    C212   O805      0.75118      .   S
    C218   O805      0.75118      .   S
    C311   O806      0.73970      .   S
    C305   O806      0.73970      .   S
    C311   O807      0.70396      .   S
    C312   O807      0.70396      .   S
    C310   O808      0.73980      .   S
    C304   O808      0.73980      .   S
    C310   O809      0.74548      .   S
    C313   O809      0.74548      .   S
    C306   O810      0.70318      .   S
    C304   O810      0.70318      .   S
    C306   O811      0.69579      .   S
    C308   O811      0.69579      .   S
    C307   O812      0.70310      .   S
    C305   O812      0.70310      .   S
    C307   O813      0.69579      .   S
    C309   O813      0.69579      .   S
    C329   O814      0.69838      .   S
    C327   O814      0.69838      .   S
    C329   O815      0.74205      .   S
    C337   O815      0.74205  1_565   S
    C328   O816      0.69838      .   S
    C326   O816      0.69838      .   S
    C328   O817      0.74205      .   S
    C336   O817      0.74205  1_565   S
    C104   O818      0.54508      .   S
    C308   O818      0.54508      .   S
    C105   O819      0.54508      .   S
    C309   O819      0.54508      .   S
    C326   O820      0.54418      .   S
    C118   O820      0.54418      .   S
    C327   O821      0.54418      .   S
    C119   O821      0.54418      .   S
    C315   O822      0.65471      .   S
    C313   O822      0.65471  1_455   S
    C315   O823      0.54470      .   S
    C109   O823      0.54470      .   S
    C314   O824      0.69596      .   S
    C312   O824      0.69596      .   S
    C314   O825      0.54470      .   S
    C108   O825      0.54470      .   S
    C305   O826      0.70379      .   S
    C303   O826      0.70379      .   S
    C304   O827      0.70359      .   S
    C302   O827      0.70359      .   S
    C309   O828      0.70042      .   S
    C299   O828      0.70042      .   S
    C308   O829      0.70040      .   S
    C298   O829      0.70040      .   S
    C219   O830      0.65602      .   S
    C411   O830      0.65602      .   S
    C219   O831      0.62202      .   S
    C409   O831      0.62202      .   S
    C218   O832      0.65602      .   S
    C410   O832      0.65602      .   S
    C218   O833      0.62202      .   S
    C408   O833      0.62202      .   S
    C410   O834      0.94220      .   S
    C11    O834      0.94220      .   S
    C411   O835      0.94231      .   S
    C10    O835      0.94231  1_455   S
    C313   O836      0.54517      .   S
    C107   O836      0.54517      .   S
    C312   O837      0.54520      .   S
    C106   O837      0.54520      .   S
    C337   O838      0.63481      .   S
    C453   O838      0.63481      .   S
    C337   O839      0.64941      .   S
    C459   O839      0.64941      .   S
    C336   O840      0.63480      .   S
    C452   O840      0.63480      .   S
    C336   O841      0.64940      .   S
    C458   O841      0.64940      .   S
    C96    O842      0.55052      .   S
    C296   O842      0.55052      .   S
    C97    O843      0.55052      .   S
    C297   O843      0.55052      .   S
    C453   O844      1.02654      .   S
    C11    O844      1.02654      .   S
    C452   O845      1.02653      .   S
    C10    O845      1.02653      .   S
    C302   O846      0.54453      .   S
    C100   O846      0.54453      .   S
    C302   O847      0.69657      .   S
    C300   O847      0.69657      .   S
    C303   O848      0.54454      .   S
    C101   O848      0.54454      .   S
    C303   O849      0.69629      .   S
    C301   O849      0.69629      .   S
    C299   O850      0.70070      .   S
    C301   O850      0.70070      .   S
    C299   O851      0.74896      .   S
    C297   O851      0.74896      .   S
    C298   O852      0.70098      .   S
    C300   O852      0.70098      .   S
    C298   O853      0.74897      .   S
    C296   O853      0.74897      .   S
    C301   O854      0.54626      .   S
    C99    O854      0.54626      .   S
    C458   O855      0.95733      .   S
    C8     O855      0.95733      .   S
    C459   O856      0.95732      .   S
    C9     O856      0.95732      .   S
    C300   O857      0.54570      .   S
    C98    O857      0.54570      .   S
    C296   O858      0.54949      .   S
    C94    O858      0.54949      .   S
    C296   O859      0.73131      .   S
    C444   O859      0.73131      .   S
    C297   O860      0.54949      .   S
    C95    O860      0.54949      .   S
    C297   O861      0.73130      .   S
    C445   O861      0.73130      .   S
    C11    O862      1.01920      .   S
    C443   O862      1.01920      .   S
    C11    O863      0.99136      .   S
    C436   O863      0.99136      .   S
    C10    O864      1.02045      .   S
    C442   O864      1.02045      .   S
    C10    O865      0.99138  1_455   S
    C437   O865      0.99138      .   S
    C443   O866      0.64994      .   S
    C293   O866      0.64994      .   S
    C442   O867      0.64111      .   S
    C292   O867      0.64111      .   S
    C89    O868      0.54383      .   S
    C283   O868      0.54383      .   S
    C88    O869      0.54383      .   S
    C282   O869      0.54383      .   S
    C445   O870      0.68010      .   S
    C285   O870      0.68010      .   S
    C444   O871      0.68010      .   S
    C284   O871      0.68010      .   S
    C283   O872      0.70095      .   S
    C285   O872      0.70095      .   S
    C283   O873      0.70358      .   S
    C280   O873      0.70358  1_455   S
    C282   O874      0.70095      .   S
    C284   O874      0.70095      .   S
    C282   O875      0.70347      .   S
    C281   O875      0.70347      .   S
    C8     O876      0.97650      .   S
    C440   O876      0.97650      .   S
    C8     O877      0.98021      .   S
    C434   O877      0.98021      .   S
    C9     O878      0.97651      .   S
    C441   O878      0.97651      .   S
    C9     O879      0.98020      .   S
    C435   O879      0.98020      .   S
    C292   O880      0.73890      .   S
    C280   O880      0.73890      .   S
    C292   O881      0.64536      .   S
    C440   O881      0.64536      .   S
    C293   O882      0.73890      .   S
    C281   O882      0.73890      .   S
    C293   O883      0.64535      .   S
    C441   O883      0.64535      .   S
    C285   O884      0.70311      .   S
    C287   O884      0.70311      .   S
    C284   O885      0.70311      .   S
    C286   O885      0.70311      .   S
    C281   O886      0.69897      .   S
    C291   O886      0.69897      .   S
    C280   O887      0.69897      .   S
    C290   O887      0.69897      .   S
    C437   O888      0.63838  1_655   S
    C234   O888      0.63838      .   S
    C436   O889      0.63862      .   S
    C235   O889      0.63862      .   S
    C434   O890      0.64017      .   S
    C234   O890      0.64017      .   S
    C435   O891      0.64024      .   S
    C235   O891      0.64024      .   S
    C234   O892      0.74748      .   S
    C228   O892      0.74748  1_545   S
    C235   O893      0.74705      .   S
    C229   O893      0.74705  1_545   S
    C287   O894      0.54452      .   S
    C91    O894      0.54452      .   S
    C287   O895      0.69893      .   S
    C288   O895      0.69893  1_455   S
    C286   O896      0.54452      .   S
    C90    O896      0.54452      .   S
    C286   O897      0.69881      .   S
    C289   O897      0.69881      .   S
    C291   O898      0.54293      .   S
    C93    O898      0.54293      .   S
    C291   O899      0.70008      .   S
    C289   O899      0.70008      .   S
    C290   O900      0.54292      .   S
    C92    O900      0.54292      .   S
    C290   O901      0.70008      .   S
    C288   O901      0.70008      .   S
    C288   O902      0.74659      .   S
    C294   O902      0.74659      .   S
    C289   O903      0.74659      .   S
    C295   O903      0.74659      .   S
    C228   O904      0.70027      .   S
    C230   O904      0.70027      .   S
    C228   O905      0.69909  1_455   S
    C227   O905      0.69909  1_565   S
    C229   O906      0.70027      .   S
    C231   O906      0.70027      .   S
    C229   O907      0.69896      .   S
    C226   O907      0.69896  1_565   S
    C56    O908      0.54342      .   S
    C230   O908      0.54342      .   S
    C57    O909      0.54341      .   S
    C231   O909      0.54341      .   S
    C54    O910      0.54453      .   S
    C226   O910      0.54453      .   S
    C55    O911      0.54448      .   S
    C227   O911      0.54448      .   S
    C231   O912      0.69896      .   S
    C221   O912      0.69896      .   S
    C230   O913      0.69895      .   S
    C220   O913      0.69895      .   S
    C227   O914      0.70336  1_565   S
    C225   O914      0.70336      .   S
    C226   O915      0.70337  1_565   S
    C224   O915      0.70337      .   S
    C295   O916      0.63992      .   S
    C455   O916      0.63992      .   S
    C295   O917      0.63877      .   S
    C456   O917      0.63877      .   S
    C294   O918      0.63991      .   S
    C454   O918      0.63991      .   S
    C294   O919      0.63887      .   S
    C457   O919      0.63887  1_655   S
    C455   O920      0.98087      .   S
    C5     O920      0.98087      .   S
    C454   O921      0.98087      .   S
    C4     O921      0.98087      .   S
    C420   O922      0.64534      .   S
    C232   O922      0.64534      .   S
    C420   O923      0.97663      .   S
    C4     O923      0.97663      .   S
    C421   O924      0.64534      .   S
    C233   O924      0.64534      .   S
    C421   O925      0.97663      .   S
    C5     O925      0.97663      .   S
    C456   O926      0.98993      .   S
    C7     O926      0.98993      .   S
    C457   O927      0.98995      .   S
    C6     O927      0.98995  1_455   S
    C221   O928      0.73890      .   S
    C233   O928      0.73890      .   S
    C221   O929      0.70334      .   S
    C222   O929      0.70334      .   S
    C220   O930      0.73890      .   S
    C232   O930      0.73890      .   S
    C220   O931      0.70347  1_455   S
    C223   O931      0.70347      .   S
    C225   O932      0.70083      .   S
    C223   O932      0.70083      .   S
    C225   O933      0.68020      .   S
    C425   O933      0.68020      .   S
    C224   O934      0.70083      .   S
    C222   O934      0.70083      .   S
    C224   O935      0.68014      .   S
    C424   O935      0.68014      .   S
    C233   O936      0.64108      .   S
    C423   O936      0.64108      .   S
    C232   O937      0.64108      .   S
    C422   O937      0.64108      .   S
    C4     O938      0.95750      .   S
    C438   O938      0.95750      .   S
    C5     O939      0.95749      .   S
    C439   O939      0.95749      .   S
    C223   O940      0.54381      .   S
    C53    O940      0.54381      .   S
    C222   O941      0.54381      .   S
    C52    O941      0.54381      .   S
    C424   O942      0.73110      .   S
    C236   O942      0.73110      .   S
    C425   O943      0.73100      .   S
    C237   O943      0.73100      .   S
    C63    O944      0.54575      .   S
    C241   O944      0.54575      .   S
    C62    O945      0.54576      .   S
    C240   O945      0.54576      .   S
    C422   O946      1.02106      .   S
    C6     O946      1.02106      .   S
    C423   O947      1.02106      .   S
    C7     O947      1.02106      .   S
    C59    O948      0.54952      .   S
    C237   O948      0.54952      .   S
    C58    O949      0.54952      .   S
    C236   O949      0.54952      .   S
    C7     O950      1.02773      .   S
    C433   O950      1.02773      .   S
    C7     O951      0.94305      .   S
    C470   O951      0.94305      .   S
    C6     O952      1.02772      .   S
    C432   O952      1.02772      .   S
    C6     O953      0.94313  1_455   S
    C471   O953      0.94313      .   S
    C439   O954      0.64912      .   S
    C277   O954      0.64912      .   S
    C438   O955      0.64930      .   S
    C276   O955      0.64930      .   S
    C237   O956      0.74857      .   S
    C239   O956      0.74857      .   S
    C237   O957      0.55045      .   S
    C61    O957      0.55045      .   S
    C236   O958      0.74867      .   S
    C238   O958      0.74867      .   S
    C236   O959      0.55045      .   S
    C60    O959      0.55045      .   S
    C240   O960      0.70088      .   S
    C238   O960      0.70088      .   S
    C240   O961      0.69650      .   S
    C242   O961      0.69650      .   S
    C241   O962      0.70078      .   S
    C239   O962      0.70078      .   S
    C241   O963      0.69650      .   S
    C243   O963      0.69650      .   S
    C70    O964      0.54525      .   S
    C252   O964      0.54525      .   S
    C71    O965      0.54513      .   S
    C253   O965      0.54513      .   S
    C64    O966      0.54452      .   S
    C242   O966      0.54452      .   S
    C65    O967      0.54453      .   S
    C243   O967      0.54453      .   S
    C239   O968      0.70072  1_545   S
    C249   O968      0.70072      .   S
    C238   O969      0.70054  1_545   S
    C248   O969      0.70054      .   S
    C242   O970      0.70377  1_545   S
    C244   O970      0.70377      .   S
    C243   O971      0.70376  1_545   S
    C245   O971      0.70376      .   S
    C469   O972      0.62230      .   S
    C399   O972      0.62230      .   S
    C468   O973      0.62230      .   S
    C398   O973      0.62230      .   S
    C433   O974      0.63471      .   S
    C277   O974      0.63471      .   S
    C432   O975      0.63473      .   S
    C276   O975      0.63473      .   S
    C277   O976      0.74169      .   S
    C269   O976      0.74169      .   S
    C276   O977      0.74149      .   S
    C268   O977      0.74149      .   S
    C83    O978      0.54419      .   S
    C267   O978      0.54419      .   S
    C82    O979      0.54419      .   S
    C266   O979      0.54419      .   S
    C73    O980      0.54560      .   S
    C255   O980      0.54560      .   S
    C72    O981      0.54517      .   S
    C254   O981      0.54517      .   S
    C252   O982      0.69598      .   S
    C254   O982      0.69598      .   S
    C252   O983      0.70401      .   S
    C251   O983      0.70401      .   S
    C253   O984      0.65519  1_455   S
    C255   O984      0.65519      .   S
    C253   O985      0.74500      .   S
    C250   O985      0.74500      .   S
    C471   O986      0.65587      .   S
    C399   O986      0.65587      .   S
    C470   O987      0.65587      .   S
    C398   O987      0.65587      .   S
    C248   O988      0.54497      .   S
    C68    O988      0.54497      .   S
    C248   O989      0.69558      .   S
    C246   O989      0.69558      .   S
    C249   O990      0.54500      .   S
    C69    O990      0.54500      .   S
    C249   O991      0.69536      .   S
    C247   O991      0.69536      .   S
    C398   O992      0.75050      .   S
    C392   O992      0.75050      .   S
    C245   O993      0.70289      .   S
    C247   O993      0.70289      .   S
    C245   O994      0.73958      .   S
    C251   O994      0.73958      .   S
    C399   O995      0.75051      .   S
    C393   O995      0.75051      .   S
    C244   O996      0.70312      .   S
    C246   O996      0.70312      .   S
    C244   O997      0.73953      .   S
    C250   O997      0.73953      .   S
    C255   O998      0.70153      .   S
    C257   O998      0.70153      .   S
    C254   O999      0.70152      .   S
    C256   O999      0.70152      .   S
    C267   O1000     0.69830      .   S
    C269   O1000     0.69830      .   S
    C267   O1001     0.70113      .   S
    C265   O1001     0.70113      .   S
    C266   O1002     0.69829      .   S
    C268   O1002     0.69829      .   S
    C266   O1003     0.70191      .   S
    C264   O1003     0.70191      .   S
    C147   O1004     0.54552      .   S
    C379   O1004     0.54552      .   S
    C146   O1005     0.54475      .   S
    C378   O1005     0.54475      .   S
    C268   O1006     0.70122      .   S
    C270   O1006     0.70122      .   S
    C269   O1007     0.70058      .   S
    C271   O1007     0.70058      .   S
    C247   O1008     0.54544      .   S
    C67    O1008     0.54544      .   S
    C246   O1009     0.54500      .   S
    C66    O1009     0.54500      .   S
    C159   O1010     0.54395      .   S
    C395   O1010     0.54395      .   S
    C158   O1011     0.54395      .   S
    C394   O1011     0.54395      .   S
    C250   O1012     0.70215      .   S
    C260   O1012     0.70215      .   S
    C251   O1013     0.70201      .   S
    C261   O1013     0.70201      .   S
    C150   O1014     0.55101      .   S
    C382   O1014     0.55101      .   S
    C151   O1015     0.55101      .   S
    C383   O1015     0.55101      .   S
    C426   O1016     0.68380      .   S
    C264   O1016     0.68380      .   S
    C427   O1017     0.68364      .   S
    C265   O1017     0.68364      .   S
    C392   O1018     0.70255      .   S
    C394   O1018     0.70255      .   S
    C393   O1019     0.70255      .   S
    C395   O1019     0.70255      .   S
    C271   O1020     0.54308      .   S
    C85    O1020     0.54308      .   S
    C270   O1021     0.54302      .   S
    C84    O1021     0.54302      .   S
    C153   O1022     0.55241      .   S
    C383   O1022     0.55241      .   S
    C152   O1023     0.55240      .   S
    C382   O1023     0.55240      .   S
