# CIF file generated by openbabel 2.4.90, see http://openbabel.sf.net
data_I
_chemical_name_common ''
_cell_length_a 18.626
_cell_length_b 14.536
_cell_length_c 27.649
_cell_angle_alpha 89.935
_cell_angle_beta 89.867
_cell_angle_gamma 92.543
_space_group_name_H-M_alt 'P 1'
_space_group_name_Hall 'P 1'
loop_
    _symmetry_equiv_pos_as_xyz
    x,y,z
loop_
    _atom_site_label
    _atom_site_type_symbol
    _atom_site_fract_x
    _atom_site_fract_y
    _atom_site_fract_z
    _atom_site_occupancy
    Zr0     Zr   0.34941   0.12076   0.33368   1.000
    Zr1     Zr   0.84940   0.12076   0.33368   1.000
    Zr2     Zr   0.49675   0.10572   0.37892   1.000
    Zr3     Zr   0.99674   0.10572   0.37892   1.000
    Zr4     Zr   0.15067   0.37931   0.83348   1.000
    Zr5     Zr   0.65067   0.37931   0.83348   1.000
    Zr6     Zr   0.00333   0.39409   0.87905   1.000
    Zr7     Zr   0.50332   0.39409   0.87905   1.000
    Zr8     Zr   0.15058   0.87922   0.66630   1.000
    Zr9     Zr   0.65057   0.87922   0.66630   1.000
    Zr10    Zr   0.00324   0.89426   0.62107   1.000
    Zr11    Zr   0.50323   0.89426   0.62107   1.000
    Zr12    Zr   0.34931   0.62068   0.16651   1.000
    Zr13    Zr   0.84931   0.62068   0.16651   1.000
    Zr14    Zr   0.49666   0.60589   0.12093   1.000
    Zr15    Zr   0.99665   0.60589   0.12093   1.000
    Zr16    Zr   0.42650   0.27226   0.33328   1.000
    Zr17    Zr   0.92649   0.27226   0.33328   1.000
    Zr18    Zr   0.46210   0.53353   0.21760   1.000
    Zr19    Zr   0.96209   0.53353   0.21760   1.000
    Zr20    Zr   0.34296   0.01559   0.41077   1.000
    Zr21    Zr   0.84295   0.01559   0.41077   1.000
    Zr22    Zr   0.38245   0.85305   0.56680   1.000
    Zr23    Zr   0.88244   0.85305   0.56680   1.000
    Zr24    Zr   0.07386   0.22766   0.83322   1.000
    Zr25    Zr   0.57385   0.22766   0.83322   1.000
    Zr26    Zr   0.03809   0.96653   0.71770   1.000
    Zr27    Zr   0.53809   0.96653   0.71774   1.000
    Zr28    Zr   0.15762   0.48513   0.90982   1.000
    Zr29    Zr   0.65762   0.48513   0.90980   1.000
    Zr30    Zr   0.11546   0.64701   0.06535   1.000
    Zr31    Zr   0.61545   0.64701   0.06535   1.000
    Zr32    Zr   0.07349   0.72772   0.66670   1.000
    Zr33    Zr   0.57349   0.72772   0.66670   1.000
    Zr34    Zr   0.03789   0.46645   0.78234   1.000
    Zr35    Zr   0.53788   0.46645   0.78234   1.000
    Zr36    Zr   0.15703   0.98439   0.58921   1.000
    Zr37    Zr   0.65703   0.98439   0.58921   1.000
    Zr38    Zr   0.11754   0.14692   0.43310   1.000
    Zr39    Zr   0.61753   0.14693   0.43319   1.000
    Zr40    Zr   0.42613   0.77232   0.16676   1.000
    Zr41    Zr   0.92612   0.77232   0.16676   1.000
    Zr42    Zr   0.46189   0.03346   0.28224   1.000
    Zr43    Zr   0.96189   0.03346   0.28224   1.000
    Zr44    Zr   0.34236   0.51486   0.09016   1.000
    Zr45    Zr   0.84235   0.51486   0.09016   1.000
    Zr46    Zr   0.38452   0.35300   0.93463   1.000
    Zr47    Zr   0.88452   0.35299   0.93463   1.000
    Zr48    Zr   0.36890   0.24623   0.31027   1.000
    Zr49    Zr   0.86890   0.24623   0.31027   1.000
    Zr50    Zr   0.44715   0.22702   0.37019   1.000
    Zr51    Zr   0.94714   0.22702   0.37019   1.000
    Zr52    Zr   0.36873   0.78902   0.59573   1.000
    Zr53    Zr   0.86873   0.78902   0.59573   1.000
    Zr54    Zr   0.43807   0.91129   0.57014   1.000
    Zr55    Zr   0.93806   0.91130   0.57014   1.000
    Zr56    Zr   0.41040   0.03027   0.40663   1.000
    Zr57    Zr   0.91039   0.03027   0.40663   1.000
    Zr58    Zr   0.39406   0.53861   0.21283   1.000
    Zr59    Zr   0.89406   0.53861   0.21283   1.000
    Zr60    Zr   0.00969   0.56992   0.18933   1.000
    Zr61    Zr   0.50968   0.56992   0.18933   1.000
    Zr62    Zr   0.29677   0.05363   0.38283   1.000
    Zr63    Zr   0.79676   0.05363   0.38283   1.000
    Zr64    Zr   0.13150   0.25387   0.81012   1.000
    Zr65    Zr   0.63149   0.25387   0.81012   1.000
    Zr66    Zr   0.05303   0.27282   0.87011   1.000
    Zr67    Zr   0.55302   0.27282   0.87011   1.000
    Zr68    Zr   0.12843   0.71125   0.09419   1.000
    Zr69    Zr   0.62842   0.71125   0.09419   1.000
    Zr70    Zr   0.05992   0.58861   0.06869   1.000
    Zr71    Zr   0.55991   0.58861   0.06869   1.000
    Zr72    Zr   0.09031   0.46897   0.90622   1.000
    Zr73    Zr   0.59030   0.46897   0.90622   1.000
    Zr74    Zr   0.10615   0.96139   0.71270   1.000
    Zr75    Zr   0.60615   0.96139   0.71270   1.000
    Zr76    Zr   0.49051   0.93025   0.68960   1.000
    Zr77    Zr   0.99050   0.93025   0.68960   1.000
    Zr78    Zr   0.20394   0.44844   0.88136   1.000
    Zr79    Zr   0.70393   0.44844   0.88136   1.000
    Zr80    Zr   0.13108   0.75375   0.68970   1.000
    Zr81    Zr   0.63108   0.75375   0.68970   1.000
    Zr82    Zr   0.05284   0.77296   0.62980   1.000
    Zr83    Zr   0.55283   0.77296   0.62900   1.000
    Zr84    Zr   0.13126   0.21096   0.40425   1.000
    Zr85    Zr   0.63125   0.21096   0.40425   1.000
    Zr86    Zr   0.06192   0.08867   0.42984   1.000
    Zr87    Zr   0.56191   0.08868   0.42984   1.000
    Zr88    Zr   0.08959   0.96971   0.59330   1.000
    Zr89    Zr   0.58958   0.96971   0.59330   1.000
    Zr90    Zr   0.10592   0.46137   0.78715   1.000
    Zr91    Zr   0.60592   0.46137   0.78715   1.000
    Zr92    Zr   0.49030   0.43006   0.81065   1.000
    Zr93    Zr   0.99030   0.43006   0.81065   1.000
    Zr94    Zr   0.20322   0.94634   0.61715   1.000
    Zr95    Zr   0.70321   0.94634   0.61715   1.000
    Zr96    Zr   0.36849   0.74611   0.18980   1.000
    Zr97    Zr   0.86848   0.74611   0.18980   1.000
    Zr98    Zr   0.44696   0.72716   0.12988   1.000
    Zr99    Zr   0.94695   0.72716   0.12988   1.000
    Zr100   Zr   0.37157   0.28874   0.90579   1.000
    Zr101   Zr   0.87156   0.28874   0.90579   1.000
    Zr102   Zr   0.44006   0.41140   0.93129   1.000
    Zr103   Zr   0.94005   0.41140   0.93129   1.000
    Zr104   Zr   0.40967   0.53101   0.09370   1.000
    Zr105   Zr   0.90967   0.53101   0.09370   1.000
    Zr106   Zr   0.39383   0.03859   0.28729   1.000
    Zr107   Zr   0.89383   0.03859   0.28729   1.000
    Zr108   Zr   0.00948   0.06973   0.31038   1.000
    Zr109   Zr   0.50947   0.06974   0.31038   1.000
    Zr110   Zr   0.29605   0.55155   0.11862   1.000
    Zr111   Zr   0.79604   0.55155   0.11862   1.000
    O112    O    0.58768   0.61781   0.06702   1.000
    O113    O    0.62194   0.67913   0.07977   1.000
    O114    O    0.08769   0.61781   0.06702   1.000
    O115    O    0.12194   0.67913   0.07977   1.000
    O116    O    0.52828   0.59725   0.09481   1.000
    O117    O    0.02828   0.59725   0.09481   1.000
    O118    O    0.37602   0.52294   0.09193   1.000
    O119    O    0.31920   0.53320   0.10439   1.000
    O120    O    0.87601   0.52293   0.09193   1.000
    O121    O    0.81920   0.53320   0.10439   1.000
    O122    O    0.45317   0.56845   0.10732   1.000
    O123    O    0.95316   0.56845   0.10732   1.000
    O124    O    0.82267   0.58611   0.14257   1.000
    O125    O    0.32268   0.58611   0.14257   1.000
    O126    O    0.47181   0.66653   0.12541   1.000
    O127    O    0.50317   0.58790   0.15513   1.000
    O128    O    0.97180   0.66653   0.12541   1.000
    O129    O    0.00317   0.58791   0.15513   1.000
    O130    O    0.93654   0.74974   0.14832   1.000
    O131    O    0.43655   0.74974   0.14832   1.000
    O132    O    0.35890   0.68339   0.17816   1.000
    O133    O    0.37169   0.57964   0.18967   1.000
    O134    O    0.85889   0.68339   0.17816   1.000
    O135    O    0.87168   0.57964   0.18967   1.000
    O136    O    0.39731   0.75921   0.17828   1.000
    O137    O    0.89730   0.75921   0.17828   1.000
    O138    O    0.98589   0.55172   0.20347   1.000
    O139    O    0.48589   0.55172   0.20347   1.000
    O140    O    0.92807   0.53607   0.21522   1.000
    O141    O    0.42808   0.53607   0.21522   1.000
    O142    O    0.42786   0.03603   0.28477   1.000
    O143    O    0.48568   0.05160   0.29631   1.000
    O144    O    0.92786   0.03603   0.28477   1.000
    O145    O    0.98568   0.05160   0.29631   1.000
    O146    O    0.37162   0.07968   0.31049   1.000
    O147    O    0.87162   0.07968   0.31049   1.000
    O148    O    0.89769   0.25924   0.32178   1.000
    O149    O    0.85915   0.18349   0.32198   1.000
    O150    O    0.39770   0.25924   0.32178   1.000
    O151    O    0.35916   0.18349   0.32198   1.000
    O152    O    0.00311   0.08773   0.34465   1.000
    O153    O    0.50311   0.08773   0.34465   1.000
    O154    O    0.43682   0.24964   0.35174   1.000
    O155    O    0.93682   0.24964   0.35174   1.000
    O156    O    0.82308   0.08719   0.35826   1.000
    O157    O    0.32309   0.08719   0.35826   1.000
    O158    O    0.97194   0.16637   0.37456   1.000
    O159    O    0.47195   0.16637   0.37456   1.000
    O160    O    0.95357   0.06800   0.39278   1.000
    O161    O    0.02933   0.09720   0.40438   1.000
    O162    O    0.45358   0.06799   0.39278   1.000
    O163    O    0.52933   0.09720   0.40438   1.000
    O164    O    0.31986   0.03461   0.39680   1.000
    O165    O    0.81986   0.03461   0.39680   1.000
    O166    O    0.12440   0.17894   0.41868   1.000
    O167    O    0.62439   0.17894   0.41872   1.000
    O168    O    0.87667   0.02293   0.40870   1.000
    O169    O    0.37668   0.02293   0.40870   1.000
    O170    O    0.08973   0.11780   0.43147   1.000
    O171    O    0.58972   0.11780   0.43152   1.000
    O172    O    0.91025   0.88217   0.56847   1.000
    O173    O    0.87558   0.82103   0.58127   1.000
    O174    O    0.41026   0.88217   0.56847   1.000
    O175    O    0.37559   0.82103   0.58127   1.000
    O176    O    0.47065   0.90278   0.59561   1.000
    O177    O    0.97065   0.90278   0.59561   1.000
    O178    O    0.62330   0.97705   0.59126   1.000
    O179    O    0.68012   0.96536   0.60318   1.000
    O180    O    0.12331   0.97705   0.59126   1.000
    O181    O    0.18013   0.96536   0.60318   1.000
    O182    O    0.54641   0.93199   0.60719   1.000
    O183    O    0.04641   0.93199   0.60719   1.000
    O184    O    0.17690   0.91278   0.64173   1.000
    O185    O    0.67689   0.91278   0.64173   1.000
    O186    O    0.52803   0.83361   0.62504   1.000
    O187    O    0.49687   0.91225   0.65534   1.000
    O188    O    0.02804   0.83361   0.62544   1.000
    O189    O    0.99687   0.91226   0.65534   1.000
    O190    O    0.56316   0.75034   0.64785   1.000
    O191    O    0.06317   0.75034   0.64825   1.000
    O192    O    0.14083   0.81649   0.67800   1.000
    O193    O    0.12837   0.92031   0.68950   1.000
    O194    O    0.64082   0.81649   0.67800   1.000
    O195    O    0.62836   0.92031   0.68950   1.000
    O196    O    0.10229   0.74074   0.67820   1.000
    O197    O    0.60228   0.74074   0.67820   1.000
    O198    O    0.01430   0.94839   0.70365   1.000
    O199    O    0.51430   0.94839   0.70367   1.000
    O200    O    0.07212   0.96396   0.71520   1.000
    O201    O    0.57212   0.96396   0.71522   1.000
    O202    O    0.57190   0.46391   0.78475   1.000
    O203    O    0.51409   0.44826   0.79650   1.000
    O204    O    0.07191   0.46391   0.78475   1.000
    O205    O    0.01409   0.44826   0.79650   1.000
    O206    O    0.62829   0.42034   0.81032   1.000
    O207    O    0.12830   0.42034   0.81032   1.000
    O208    O    0.10268   0.24077   0.82167   1.000
    O209    O    0.14109   0.31659   0.82180   1.000
    O210    O    0.60267   0.24077   0.82167   1.000
    O211    O    0.64108   0.31659   0.82180   1.000
    O212    O    0.49681   0.41208   0.84485   1.000
    O213    O    0.99681   0.41208   0.84485   1.000
    O214    O    0.56343   0.25024   0.85167   1.000
    O215    O    0.06344   0.25024   0.85167   1.000
    O216    O    0.17730   0.41387   0.85742   1.000
    O217    O    0.67730   0.41387   0.85742   1.000
    O218    O    0.02818   0.33346   0.87458   1.000
    O219    O    0.52817   0.33346   0.87458   1.000
    O220    O    0.54681   0.43153   0.89264   1.000
    O221    O    0.47169   0.40275   0.90517   1.000
    O222    O    0.04682   0.43153   0.89264   1.000
    O223    O    0.97169   0.40275   0.90517   1.000
    O224    O    0.68077   0.46678   0.89558   1.000
    O225    O    0.18078   0.46679   0.89559   1.000
    O226    O    0.87804   0.32087   0.92021   1.000
    O227    O    0.37805   0.32087   0.92021   1.000
    O228    O    0.62396   0.47705   0.90801   1.000
    O229    O    0.12397   0.47705   0.90802   1.000
    O230    O    0.91228   0.38220   0.93296   1.000
    O231    O    0.41229   0.38220   0.93296   1.000
    N232    N    0.90020   0.11225   0.07717   1.000
    O233    O    0.11451   0.29753   0.07412   1.000
    O234    O    0.68735   0.05939   0.16914   1.000
    O235    O    0.67377   0.96276   0.12622   1.000
    O236    O    0.13048   0.23703   0.01655   1.000
    N237    N    0.40020   0.11224   0.07716   1.000
    O238    O    0.63048   0.23703   0.01655   1.000
    O239    O    0.61451   0.29753   0.07412   1.000
    O240    O    0.18735   0.05939   0.16913   1.000
    O241    O    0.17377   0.96276   0.12622   1.000
    N242    N    0.59979   0.88774   0.92282   1.000
    O243    O    0.36950   0.76296   0.98343   1.000
    O244    O    0.82621   0.03722   0.87376   1.000
    O245    O    0.38547   0.70245   0.92586   1.000
    O246    O    0.81263   0.94059   0.83084   1.000
    N247    N    0.09950   0.88773   0.92281   1.000
    O248    O    0.88532   0.70245   0.92586   1.000
    O249    O    0.32606   0.03722   0.87376   1.000
    O250    O    0.86935   0.76295   0.98343   1.000
    O251    O    0.31248   0.94059   0.83085   1.000
    N252    N    0.40014   0.61250   0.42264   1.000
    O253    O    0.18746   0.55955   0.33068   1.000
    O254    O    0.17396   0.46285   0.37367   1.000
    O255    O    0.62964   0.73720   0.48397   1.000
    O256    O    0.61466   0.79796   0.42624   1.000
    N257    N    0.59984   0.38747   0.57734   1.000
    O258    O    0.81253   0.44042   0.66929   1.000
    O259    O    0.82603   0.53713   0.62631   1.000
    O260    O    0.37035   0.26277   0.51599   1.000
    O261    O    0.38532   0.20202   0.57374   1.000
    N262    N    0.90014   0.61250   0.42264   1.000
    O263    O    0.12964   0.73720   0.48397   1.000
    O264    O    0.11467   0.79795   0.42624   1.000
    O265    O    0.68746   0.55955   0.33068   1.000
    O266    O    0.67396   0.46285   0.37367   1.000
    N267    N    0.09956   0.38747   0.57734   1.000
    O268    O    0.88517   0.20202   0.57374   1.000
    O269    O    0.31238   0.44042   0.66929   1.000
    O270    O    0.32588   0.53713   0.62631   1.000
    O271    O    0.87020   0.26277   0.51601   1.000
loop_
    _geom_bond_atom_site_label_1
    _geom_bond_atom_site_label_2
    _geom_bond_distance
    _geom_bond_site_symmetry_2
    _ccdc_geom_bond_type
    Zr31   O112      0.65588      .   S
    Zr71   O112      0.65588      .   S
    Zr31   O113      0.62225      .   S
    Zr69   O113      0.62225      .   S
    Zr30   O114      0.65588      .   S
    Zr70   O114      0.65588      .   S
    Zr30   O115      0.62226      .   S
    Zr68   O115      0.62226      .   S
    Zr71   O116      0.94295      .   S
    Zr14   O116      0.94295      .   S
    Zr70   O117      0.94304      .   S
    Zr15   O117      0.94304  1_655   S
    Zr44   O118      0.63467      .   S
    Zr104  O118      0.63467      .   S
    Zr44   O119      0.64928      .   S
    Zr110  O119      0.64928      .   S
    Zr45   O120      0.63467      .   S
    Zr105  O120      0.63467      .   S
    Zr45   O121      0.64929      .   S
    Zr111  O121      0.64929      .   S
    Zr104  O122      1.02804      .   S
    Zr14   O122      1.02804      .   S
    Zr105  O123      1.02804      .   S
    Zr15   O123      1.02804      .   S
    Zr111  O124      0.95759      .   S
    Zr13   O124      0.95759      .   S
    Zr110  O125      0.95759      .   S
    Zr12   O125      0.95759      .   S
    Zr14   O126      1.02107      .   S
    Zr98   O126      1.02107      .   S
    Zr14   O127      0.98995      .   S
    Zr61   O127      0.98995      .   S
    Zr15   O128      1.02107      .   S
    Zr99   O128      1.02107      .   S
    Zr15   O129      0.98996  1_655   S
    Zr60   O129      0.98996      .   S
    Zr99   O130      0.64097      .   S
    Zr41   O130      0.64097      .   S
    Zr98   O131      0.64096      .   S
    Zr40   O131      0.64096      .   S
    Zr12   O132      0.97630      .   S
    Zr96   O132      0.97630      .   S
    Zr12   O133      0.98080      .   S
    Zr58   O133      0.98080      .   S
    Zr13   O134      0.97631      .   S
    Zr97   O134      0.97631      .   S
    Zr13   O135      0.98079      .   S
    Zr59   O135      0.98079      .   S
    Zr40   O136      0.64493      .   S
    Zr96   O136      0.64493      .   S
    Zr41   O137      0.64493      .   S
    Zr97   O137      0.64493      .   S
    Zr60   O138      0.63854  1_455   S
    Zr19   O138      0.63854      .   S
    Zr61   O139      0.63844      .   S
    Zr18   O139      0.63844      .   S
    Zr59   O140      0.63984      .   S
    Zr19   O140      0.63984      .   S
    Zr58   O141      0.63984      .   S
    Zr18   O141      0.63984      .   S
    Zr42   O142      0.64025      .   S
    Zr106  O142      0.64025      .   S
    Zr42   O143      0.63863      .   S
    Zr109  O143      0.63863      .   S
    Zr43   O144      0.64025      .   S
    Zr107  O144      0.64025      .   S
    Zr43   O145      0.63873      .   S
    Zr108  O145      0.63873  1_455   S
    Zr106  O146      0.98011      .   S
    Zr0    O146      0.98011      .   S
    Zr107  O147      0.98011      .   S
    Zr1    O147      0.98011      .   S
    Zr49   O148      0.64543      .   S
    Zr17   O148      0.64543      .   S
    Zr49   O149      0.97654      .   S
    Zr1    O149      0.97654      .   S
    Zr48   O150      0.64543      .   S
    Zr16   O150      0.64543      .   S
    Zr48   O151      0.97654      .   S
    Zr0    O151      0.97654      .   S
    Zr108  O152      0.99150      .   S
    Zr3    O152      0.99150  1_655   S
    Zr109  O153      0.99148      .   S
    Zr2    O153      0.99148      .   S
    Zr16   O154      0.64121      .   S
    Zr50   O154      0.64121      .   S
    Zr17   O155      0.64122      .   S
    Zr51   O155      0.64122      .   S
    Zr1    O156      0.95735      .   S
    Zr63   O156      0.95735      .   S
    Zr0    O157      0.95735      .   S
    Zr62   O157      0.95735      .   S
    Zr51   O158      1.02045      .   S
    Zr3    O158      1.02045      .   S
    Zr50   O159      1.02045      .   S
    Zr2    O159      1.02045      .   S
    Zr3    O160      1.02622      .   S
    Zr57   O160      1.02622      .   S
    Zr3    O161      0.94224  1_655   S
    Zr86   O161      0.94224      .   S
    Zr2    O162      1.02623      .   S
    Zr56   O162      1.02623      .   S
    Zr2    O163      0.94213      .   S
    Zr87   O163      0.94213      .   S
    Zr62   O164      0.64940      .   S
    Zr20   O164      0.64940      .   S
    Zr63   O165      0.64940      .   S
    Zr21   O165      0.64940      .   S
    Zr84   O166      0.62134      .   S
    Zr38   O166      0.62134      .   S
    Zr85   O167      0.62213      .   S
    Zr39   O167      0.62213      .   S
    Zr57   O168      0.63486      .   S
    Zr21   O168      0.63486      .   S
    Zr56   O169      0.63486      .   S
    Zr20   O169      0.63486      .   S
    Zr86   O170      0.65594      .   S
    Zr38   O170      0.65594      .   S
    Zr87   O171      0.65603      .   S
    Zr39   O171      0.65603      .   S
    Zr23   O172      0.65602      .   S
    Zr55   O172      0.65602      .   S
    Zr23   O173      0.62202      .   S
    Zr53   O173      0.62202      .   S
    Zr22   O174      0.65602      .   S
    Zr54   O174      0.65602      .   S
    Zr22   O175      0.62202      .   S
    Zr52   O175      0.62202      .   S
    Zr54   O176      0.94220      .   S
    Zr11   O176      0.94220      .   S
    Zr55   O177      0.94231      .   S
    Zr10   O177      0.94231  1_455   S
    Zr37   O178      0.63481      .   S
    Zr89   O178      0.63481      .   S
    Zr37   O179      0.64941      .   S
    Zr95   O179      0.64941      .   S
    Zr36   O180      0.63480      .   S
    Zr88   O180      0.63480      .   S
    Zr36   O181      0.64940      .   S
    Zr94   O181      0.64940      .   S
    Zr89   O182      1.02654      .   S
    Zr11   O182      1.02654      .   S
    Zr88   O183      1.02653      .   S
    Zr10   O183      1.02653      .   S
    Zr94   O184      0.95733      .   S
    Zr8    O184      0.95733      .   S
    Zr95   O185      0.95732      .   S
    Zr9    O185      0.95732      .   S
    Zr11   O186      1.01920      .   S
    Zr83   O186      1.01920      .   S
    Zr11   O187      0.99136      .   S
    Zr76   O187      0.99136      .   S
    Zr10   O188      1.02045      .   S
    Zr82   O188      1.02045      .   S
    Zr10   O189      0.99138  1_455   S
    Zr77   O189      0.99138      .   S
    Zr83   O190      0.64994      .   S
    Zr33   O190      0.64994      .   S
    Zr82   O191      0.64111      .   S
    Zr32   O191      0.64111      .   S
    Zr8    O192      0.97650      .   S
    Zr80   O192      0.97650      .   S
    Zr8    O193      0.98021      .   S
    Zr74   O193      0.98021      .   S
    Zr9    O194      0.97651      .   S
    Zr81   O194      0.97651      .   S
    Zr9    O195      0.98020      .   S
    Zr75   O195      0.98020      .   S
    Zr32   O196      0.64536      .   S
    Zr80   O196      0.64536      .   S
    Zr33   O197      0.64535      .   S
    Zr81   O197      0.64535      .   S
    Zr77   O198      0.63838  1_655   S
    Zr26   O198      0.63838      .   S
    Zr76   O199      0.63862      .   S
    Zr27   O199      0.63862      .   S
    Zr74   O200      0.64017      .   S
    Zr26   O200      0.64017      .   S
    Zr75   O201      0.64024      .   S
    Zr27   O201      0.64024      .   S
    Zr35   O202      0.63992      .   S
    Zr91   O202      0.63992      .   S
    Zr35   O203      0.63877      .   S
    Zr92   O203      0.63877      .   S
    Zr34   O204      0.63991      .   S
    Zr90   O204      0.63991      .   S
    Zr34   O205      0.63887      .   S
    Zr93   O205      0.63887  1_655   S
    Zr91   O206      0.98087      .   S
    Zr5    O206      0.98087      .   S
    Zr90   O207      0.98087      .   S
    Zr4    O207      0.98087      .   S
    Zr64   O208      0.64534      .   S
    Zr24   O208      0.64534      .   S
    Zr64   O209      0.97663      .   S
    Zr4    O209      0.97663      .   S
    Zr65   O210      0.64534      .   S
    Zr25   O210      0.64534      .   S
    Zr65   O211      0.97663      .   S
    Zr5    O211      0.97663      .   S
    Zr92   O212      0.98993      .   S
    Zr7    O212      0.98993      .   S
    Zr93   O213      0.98995      .   S
    Zr6    O213      0.98995  1_455   S
    Zr25   O214      0.64108      .   S
    Zr67   O214      0.64108      .   S
    Zr24   O215      0.64108      .   S
    Zr66   O215      0.64108      .   S
    Zr4    O216      0.95750      .   S
    Zr78   O216      0.95750      .   S
    Zr5    O217      0.95749      .   S
    Zr79   O217      0.95749      .   S
    Zr66   O218      1.02106      .   S
    Zr6    O218      1.02106      .   S
    Zr67   O219      1.02106      .   S
    Zr7    O219      1.02106      .   S
    Zr7    O220      1.02773      .   S
    Zr73   O220      1.02773      .   S
    Zr7    O221      0.94305      .   S
    Zr102  O221      0.94305      .   S
    Zr6    O222      1.02772      .   S
    Zr72   O222      1.02772      .   S
    Zr6    O223      0.94313  1_455   S
    Zr103  O223      0.94313      .   S
    Zr79   O224      0.64912      .   S
    Zr29   O224      0.64912      .   S
    Zr78   O225      0.64930      .   S
    Zr28   O225      0.64930      .   S
    Zr101  O226      0.62230      .   S
    Zr47   O226      0.62230      .   S
    Zr100  O227      0.62230      .   S
    Zr46   O227      0.62230      .   S
    Zr73   O228      0.63471      .   S
    Zr29   O228      0.63471      .   S
    Zr72   O229      0.63473      .   S
    Zr28   O229      0.63473      .   S
    Zr103  O230      0.65587      .   S
    Zr47   O230      0.65587      .   S
    Zr102  O231      0.65587      .   S
    Zr46   O231      0.65587      .   S
    N232   O233      4.71590  1_655   S
    Zr44   O233      5.19705      .   S
    N232   O234      4.73823      .   S
    Zr42   O234      5.22996      .   S
    N232   O235      4.84774  1_545   S
    Zr40   O235      5.38805      .   S
    N232   O236      4.87513  1_655   S
    Zr46   O236      5.44017  1_556   S
    N237   O238      4.87503      .   S
    Zr47   O238      5.44008  1_556   S
    N237   O239      4.71585      .   S
    Zr45   O239      5.19701      .   S
    N237   O240      4.73834      .   S
    Zr43   O240      5.23007  1_655   S
    N237   O241      4.84783  1_545   S
    Zr41   O241      5.38813  1_655   S
    N242   O243      4.87506      .   S
    Zr30   O243      5.44004  1_554   S
    N242   O244      4.84780  1_565   S
    Zr24   O244      5.38813  1_455   S
    N242   O245      4.71585      .   S
    Zr28   O245      5.19702      .   S
    N242   O246      4.73843      .   S
    Zr26   O246      5.23058  1_455   S
    N247   O248      4.71369  1_455   S
    Zr29   O248      5.19496      .   S
    N247   O249      4.85003  1_565   S
    Zr25   O249      5.39032      .   S
    N247   O250      4.87280  1_455   S
    Zr31   O250      5.43781  1_554   S
    N247   O251      4.74044      .   S
    Zr27   O251      5.23216      .   S
    N252   O253      4.74668      .   S
    Zr19   O253      5.24031  1_655   S
    N252   O254      4.85117      .   S
    Zr17   O254      5.39127  1_655   S
    N252   O255      4.87720      .   S
    Zr23   O255      5.44133      .   S
    N252   O256      4.72116      .   S
    Zr21   O256      5.20246  1_545   S
    N257   O258      4.74658      .   S
    Zr34   O258      5.23986  1_455   S
    N257   O259      4.85121      .   S
    Zr32   O259      5.39131  1_455   S
    N257   O260      4.87735      .   S
    Zr38   O260      5.44197      .   S
    N257   O261      4.72115      .   S
    Zr36   O261      5.20246  1_565   S
    N262   O263      4.87725  1_655   S
    Zr22   O263      5.44138      .   S
    N262   O264      4.72122  1_655   S
    Zr20   O264      5.20253  1_545   S
    N262   O265      4.74664      .   S
    Zr18   O265      5.24027      .   S
    N262   O266      4.85112      .   S
    Zr16   O266      5.39121      .   S
    N267   O268      4.71901  1_455   S
    Zr37   O268      5.20040  1_565   S
    N267   O269      4.74874      .   S
    Zr35   O269      5.24194      .   S
    N267   O270      4.85342      .   S
    Zr33   O270      5.39347      .   S
    N267   O271      4.87489  1_455   S
    Zr39   O271      5.43897      .   S
