# CIF file generated by openbabel 2.4.90, see http://openbabel.sf.net
data_I
_chemical_name_common ''
_cell_length_a 20.994
_cell_length_b 18.038
_cell_length_c 18.041
_cell_angle_alpha 120.021
_cell_angle_beta 90.005
_cell_angle_gamma 89.982
_space_group_name_H-M_alt 'P 1'
_space_group_name_Hall 'P 1'
loop_
    _symmetry_equiv_pos_as_xyz
    x,y,z
loop_
    _atom_site_label
    _atom_site_type_symbol
    _atom_site_fract_x
    _atom_site_fract_y
    _atom_site_fract_z
    _atom_site_occupancy
    Zn0     Zn   0.86678   0.47367   0.54992   1.000
    Zn1     Zn   0.20010   0.07632   0.52630   1.000
    Zn2     Zn   0.70011   0.07632   0.52639   1.000
    Zn3     Zn   0.03345   0.45006   0.92375   1.000
    Zn4     Zn   0.53346   0.45006   0.92375   1.000
    Zn5     Zn   0.11678   0.52639   0.45010   1.000
    Zn6     Zn   0.61679   0.52639   0.45011   1.000
    Zn7     Zn   0.45012   0.92369   0.47365   1.000
    Zn8     Zn   0.95013   0.92369   0.47360   1.000
    Zn9     Zn   0.28344   0.54992   0.07623   1.000
    Zn10    Zn   0.78345   0.54992   0.07623   1.000
    H11     H    0.41789   0.55159   0.48012   1.000
    H12     H    0.91790   0.55159   0.48013   1.000
    H13     H    0.30321   0.62548   0.47530   1.000
    H14     H    0.80322   0.62548   0.47530   1.000
    H15     H    0.29739   0.52215   0.32640   1.000
    H16     H    0.79740   0.52215   0.32647   1.000
    H17     H    0.37304   0.40290   0.25138   1.000
    H18     H    0.87305   0.40291   0.25130   1.000
    H19     H    0.32664   0.38854   0.32533   1.000
    H20     H    0.82665   0.38854   0.32533   1.000
    H21     H    0.40640   0.42214   0.35048   1.000
    H22     H    0.90641   0.42214   0.35048   1.000
    H23     H    0.43631   0.57976   0.37533   1.000
    H24     H    0.93632   0.57976   0.37530   1.000
    H25     H    0.37267   0.64458   0.37520   1.000
    H26     H    0.87268   0.64459   0.37522   1.000
    H27     H    0.39652   0.55332   0.27815   1.000
    H28     H    0.89653   0.55332   0.27815   1.000
    H29     H    0.33713   0.88682   0.55193   1.000
    H30     H    0.83714   0.88682   0.55193   1.000
    H31     H    0.02064   0.79042   0.49520   1.000
    Zn32    Zn   0.36678   0.47367   0.54992   1.000
    H33     H    0.52064   0.79042   0.49520   1.000
    H34     H    0.30549   0.78245   0.59801   1.000
    H35     H    0.80550   0.78244   0.59801   1.000
    H36     H    0.49758   0.68202   0.53801   1.000
    H37     H    0.99759   0.68202   0.53801   1.000
    H38     H    0.33634   0.66719   0.62570   1.000
    H39     H    0.83635   0.66719   0.62574   1.000
    H40     H    0.41884   0.64581   0.62909   1.000
    H41     H    0.91885   0.64581   0.62909   1.000
    H42     H    0.25126   0.92852   0.44854   1.000
    H43     H    0.75127   0.92852   0.44854   1.000
    H44     H    0.13665   0.84972   0.37473   1.000
    H45     H    0.63666   0.84972   0.37473   1.000
    H46     H    0.13078   0.80441   0.47817   1.000
    H47     H    0.63079   0.80441   0.47817   1.000
    H48     H    0.20638   0.84888   0.59751   1.000
    H49     H    0.70639   0.84888   0.59751   1.000
    H50     H    0.15991   0.93710   0.61165   1.000
    H51     H    0.65992   0.93710   0.61165   1.000
    H52     H    0.23968   0.92864   0.57810   1.000
    H53     H    0.73970   0.92864   0.57810   1.000
    H54     H    0.26973   0.79560   0.42062   1.000
    H55     H    0.76974   0.79560   0.42062   1.000
    H56     H    0.20612   0.73060   0.35580   1.000
    H57     H    0.70613   0.73060   0.35580   1.000
    H58     H    0.22992   0.72491   0.44709   1.000
    H59     H    0.72993   0.72491   0.44709   1.000
    H60     H    0.17038   0.66510   0.11345   1.000
    H61     H    0.67039   0.66511   0.11345   1.000
    H62     H    0.35389   0.70464   0.20974   1.000
    H63     H    0.85390   0.70464   0.20974   1.000
    H64     H    0.13872   0.81563   0.21793   1.000
    H65     H    0.63874   0.81563   0.21793   1.000
    H66     H    0.33081   0.85592   0.31823   1.000
    H67     H    0.83082   0.85592   0.31823   1.000
    H68     H    0.16957   0.95861   0.33316   1.000
    H69     H    0.66958   0.95861   0.33316   1.000
    H70     H    0.25207   0.98333   0.35439   1.000
    H71     H    0.75209   0.98333   0.35439   1.000
    H72     H    0.08454   0.51999   0.07155   1.000
    H73     H    0.58455   0.52000   0.07155   1.000
    H74     H    0.46990   0.52498   0.15029   1.000
    H75     H    0.96991   0.52498   0.15029   1.000
    H76     H    0.46407   0.67382   0.19569   1.000
    H77     H    0.96408   0.67382   0.19569   1.000
    H78     H    0.03976   0.74862   0.15127   1.000
    H79     H    0.53977   0.74862   0.15127   1.000
    H80     H    0.49330   0.67459   0.06305   1.000
    H81     H    0.99331   0.67459   0.06305   1.000
    H82     H    0.07304   0.64936   0.07100   1.000
    H83     H    0.57304   0.64936   0.07149   1.000
    H84     H    0.10299   0.62491   0.20449   1.000
    H85     H    0.60300   0.62492   0.20449   1.000
    H86     H    0.03936   0.62529   0.26954   1.000
    H87     H    0.53937   0.62529   0.26954   1.000
    H88     H    0.06321   0.72221   0.27513   1.000
    H89     H    0.56323   0.72221   0.27512   1.000
    H90     H    0.00374   0.44852   0.33503   1.000
    H91     H    0.50376   0.44852   0.33503   1.000
    H92     H    0.18725   0.50512   0.29538   1.000
    H93     H    0.68726   0.50512   0.29539   1.000
    H94     H    0.47209   0.40240   0.18455   1.000
    H95     H    0.97210   0.40240   0.18455   1.000
    H96     H    0.16417   0.46226   0.14414   1.000
    H97     H    0.66418   0.46226   0.14414   1.000
    H98     H    0.00293   0.37451   0.04155   1.000
    H99     H    0.50294   0.37451   0.04155   1.000
    C100    C    0.86328   0.42897   0.31980   1.000
    C101    C    0.38960   0.57821   0.34697   1.000
    C102    C    0.88961   0.57821   0.34697   1.000
    C103    C    0.37076   0.84000   0.54999   1.000
    H104    H    0.08543   0.37098   0.01679   1.000
    H105    H    0.58544   0.37098   0.01600   1.000
    H106    H    0.16791   0.44842   0.51988   1.000
    H107    H    0.66792   0.44842   0.51988   1.000
    H108    H    0.05327   0.37459   0.52475   1.000
    H109    H    0.55328   0.37459   0.52475   1.000
    H110    H    0.04743   0.47793   0.67356   1.000
    H111    H    0.54744   0.47793   0.67356   1.000
    H112    H    0.12300   0.59722   0.74862   1.000
    H113    H    0.62301   0.59722   0.74862   1.000
    H114    H    0.07656   0.61154   0.67467   1.000
    H115    H    0.57657   0.61154   0.67467   1.000
    H116    H    0.15633   0.57798   0.64952   1.000
    H117    H    0.65635   0.57798   0.64952   1.000
    H118    H    0.18638   0.42036   0.62468   1.000
    H119    H    0.68639   0.42036   0.62468   1.000
    H120    H    0.12278   0.35553   0.62482   1.000
    H121    H    0.62279   0.35553   0.62482   1.000
    H122    H    0.14660   0.44680   0.72180   1.000
    H123    H    0.64661   0.44680   0.72188   1.000
    H124    H    0.08710   0.11335   0.44820   1.000
    H125    H    0.58711   0.11335   0.44820   1.000
    H126    H    0.27064   0.20948   0.50479   1.000
    H127    H    0.77065   0.20948   0.50479   1.000
    H128    H    0.05549   0.21772   0.40208   1.000
    H129    H    0.55550   0.21772   0.40208   1.000
    H130    H    0.24762   0.31788   0.46193   1.000
    H131    H    0.74763   0.31788   0.46190   1.000
    C132    C    0.04799   0.41011   0.06218   1.000
    C133    C    0.54800   0.41012   0.06218   1.000
    C134    C    0.01405   0.48733   0.53619   1.000
    C135    C    0.51406   0.48733   0.53619   1.000
    C136    C    0.07146   0.43950   0.54577   1.000
    H137    H    0.08637   0.33289   0.37427   1.000
    H138    H    0.58639   0.33289   0.37427   1.000
    H139    H    0.16888   0.35421   0.37092   1.000
    H140    H    0.66889   0.35421   0.37093   1.000
    H141    H    0.50123   0.07147   0.55147   1.000
    H142    H    0.00000   0.07147   0.55147   1.000
    H143    H    0.38659   0.15029   0.62530   1.000
    H144    H    0.88660   0.15029   0.62530   1.000
    H145    H    0.38071   0.19560   0.52184   1.000
    H146    H    0.88072   0.19560   0.52184   1.000
    H147    H    0.45637   0.15113   0.40256   1.000
    H148    H    0.95638   0.15113   0.40250   1.000
    H149    H    0.40993   0.06291   0.38837   1.000
    H150    H    0.90994   0.06291   0.38837   1.000
    H151    H    0.48968   0.07137   0.42199   1.000
    H152    H    0.98969   0.07137   0.42199   1.000
    H153    H    0.01963   0.20442   0.57947   1.000
    H154    H    0.51964   0.20442   0.57947   1.000
    H155    H    0.45599   0.26943   0.64420   1.000
    H156    H    0.95600   0.26943   0.64420   1.000
    H157    H    0.47981   0.27511   0.55296   1.000
    H158    H    0.97983   0.27511   0.55296   1.000
    H159    H    0.42046   0.33498   0.88662   1.000
    H160    H    0.92046   0.33498   0.88662   1.000
    H161    H    0.10392   0.29525   0.79018   1.000
    H162    H    0.60393   0.29525   0.79018   1.000
    H163    H    0.38877   0.18449   0.78216   1.000
    H164    H    0.88878   0.18449   0.78216   1.000
    H165    H    0.08081   0.14401   0.68169   1.000
    H166    H    0.58082   0.14401   0.68169   1.000
    H167    H    0.41958   0.04148   0.66692   1.000
    H168    H    0.91959   0.04148   0.66692   1.000
    H169    H    0.00208   0.01668   0.64564   1.000
    H170    H    0.50209   0.01668   0.64564   1.000
    H171    H    0.33455   0.47998   0.92842   1.000
    H172    H    0.83456   0.47998   0.92842   1.000
    H173    H    0.21989   0.47504   0.84970   1.000
    H174    H    0.71990   0.47504   0.84970   1.000
    H175    H    0.21410   0.32619   0.80426   1.000
    H176    H    0.71412   0.32619   0.80426   1.000
    H177    H    0.28981   0.25133   0.84860   1.000
    H178    H    0.78982   0.25133   0.84860   1.000
    H179    H    0.24336   0.32538   0.93688   1.000
    H180    H    0.74337   0.32538   0.93688   1.000
    H181    H    0.32310   0.35055   0.92840   1.000
    H182    H    0.82311   0.35056   0.92840   1.000
    H183    H    0.35302   0.37502   0.79542   1.000
    H184    H    0.85303   0.37502   0.79542   1.000
    H185    H    0.28937   0.37472   0.73041   1.000
    H186    H    0.78939   0.37472   0.73041   1.000
    H187    H    0.31324   0.27776   0.72479   1.000
    H188    H    0.81325   0.27776   0.72479   1.000
    H189    H    0.25370   0.55163   0.66503   1.000
    H190    H    0.75371   0.55163   0.66503   1.000
    H191    H    0.43720   0.49484   0.70460   1.000
    H192    H    0.93721   0.49485   0.70460   1.000
    H193    H    0.22204   0.59772   0.81551   1.000
    H194    H    0.72205   0.59772   0.81551   1.000
    H195    H    0.41412   0.53768   0.85584   1.000
    H196    H    0.91414   0.53768   0.85584   1.000
    H197    H    0.25287   0.62549   0.95847   1.000
    H198    H    0.75288   0.62549   0.95847   1.000
    H199    H    0.33538   0.62899   0.98321   1.000
    H200    H    0.83539   0.62900   0.98320   1.000
    C201    C    0.26406   0.51271   0.46381   1.000
    C202    C    0.76407   0.51271   0.46381   1.000
    C203    C    0.32143   0.56056   0.45425   1.000
    C204    C    0.82144   0.56056   0.45425   1.000
    C205    C    0.34127   0.52205   0.35968   1.000
    C206    C    0.84128   0.52205   0.35968   1.000
    C207    C    0.36327   0.42897   0.31981   1.000
    C208    C    0.87077   0.84001   0.54999   1.000
    C209    C    0.47352   0.78555   0.51749   1.000
    C210    C    0.97353   0.78555   0.51749   1.000
    C211    C    0.35379   0.78149   0.57535   1.000
    C212    C    0.85380   0.78149   0.57535   1.000
    C213    C    0.39855   0.72162   0.57023   1.000
    C214    C    0.89857   0.72162   0.57023   1.000
    C215    C    0.45988   0.72549   0.54180   1.000
    C216    C    0.95989   0.72550   0.54187   1.000
    C217    C    0.38138   0.65216   0.59006   1.000
    C218    C    0.88139   0.65216   0.59006   1.000
    C219    C    0.09738   0.95113   0.48735   1.000
    C220    C    0.59739   0.95113   0.48735   1.000
    C221    C    0.15480   0.89370   0.43964   1.000
    C222    C    0.65481   0.89370   0.43964   1.000
    C223    C    0.17464   0.83773   0.47825   1.000
    C224    C    0.67465   0.83773   0.47825   1.000
    C225    C    0.19659   0.89113   0.57130   1.000
    C226    C    0.69660   0.89113   0.57130   1.000
    C227    C    0.22301   0.76881   0.42217   1.000
    C228    C    0.72303   0.76881   0.42217   1.000
    C229    C    0.20400   0.70997   0.16025   1.000
    C230    C    0.70401   0.70997   0.16025   1.000
    C231    C    0.30676   0.73185   0.21465   1.000
    C232    C    0.80677   0.73185   0.21465   1.000
    C233    C    0.18703   0.79388   0.21881   1.000
    C234    C    0.68704   0.79388   0.21881   1.000
    C235    C    0.23181   0.84861   0.27863   1.000
    C236    C    0.73182   0.84861   0.27863   1.000
    C237    C    0.29312   0.81631   0.27474   1.000
    C238    C    0.79314   0.81631   0.27474   1.000
    C239    C    0.21464   0.93794   0.34809   1.000
    C240    C    0.71466   0.93794   0.34809   1.000
    C241    C    0.43070   0.53628   0.04893   1.000
    C242    C    0.93071   0.53628   0.04893   1.000
    C243    C    0.48810   0.54593   0.10636   1.000
    C244    C    0.98810   0.54593   0.10636   1.000
    C245    C    0.00793   0.64052   0.16238   1.000
    C246    C    0.50794   0.64053   0.16238   1.000
    C247    C    0.02993   0.68017   0.10901   1.000
    C248    C    0.52994   0.68017   0.10901   1.000
    C249    C    0.05628   0.65336   0.23128   1.000
    C250    C    0.55629   0.65336   0.23128   1.000
    C251    C    0.03736   0.45041   0.29015   1.000
    C252    C    0.53738   0.45041   0.29015   1.000
    C253    C    0.14012   0.48283   0.26820   1.000
    C254    C    0.64013   0.48284   0.26821   1.000
    C255    C    0.02039   0.42503   0.20626   1.000
    C256    C    0.52040   0.42503   0.20626   1.000
    C257    C    0.06516   0.43005   0.15150   1.000
    C258    C    0.56517   0.43005   0.15150   1.000
    C259    C    0.12648   0.45843   0.18376   1.000
    C260    C    0.62649   0.45844   0.18370   1.000
    C261    C    0.57147   0.43950   0.54577   1.000
    C262    C    0.09129   0.47804   0.64030   1.000
    C263    C    0.59130   0.47804   0.64035   1.000
    C264    C    0.11323   0.57113   0.68019   1.000
    C265    C    0.61324   0.57114   0.68019   1.000
    C266    C    0.13967   0.42191   0.65300   1.000
    C267    C    0.63968   0.42191   0.65300   1.000
    C268    C    0.12074   0.16011   0.45010   1.000
    C269    C    0.62075   0.16011   0.45010   1.000
    C270    C    0.22351   0.21442   0.48252   1.000
    C271    C    0.72353   0.21442   0.48252   1.000
    C272    C    0.10379   0.21862   0.42472   1.000
    C273    C    0.60380   0.21862   0.42472   1.000
    C274    C    0.14857   0.27841   0.42979   1.000
    C275    C    0.64858   0.27841   0.42979   1.000
    C276    C    0.20990   0.27446   0.45812   1.000
    C277    C    0.70991   0.27446   0.45812   1.000
    C278    C    0.13141   0.34788   0.40995   1.000
    C279    C    0.63142   0.34789   0.40995   1.000
    C280    C    0.34737   0.04889   0.51260   1.000
    C281    C    0.84738   0.04889   0.51266   1.000
    C282    C    0.40476   0.10632   0.56039   1.000
    C283    C    0.90477   0.10632   0.56039   1.000
    C284    C    0.42458   0.16229   0.52179   1.000
    C285    C    0.92459   0.16229   0.52179   1.000
    C286    C    0.44657   0.10889   0.42874   1.000
    C287    C    0.94658   0.10889   0.42874   1.000
    C288    C    0.47292   0.23121   0.57789   1.000
    C289    C    0.97293   0.23121   0.57789   1.000
    C290    C    0.45406   0.29008   0.83900   1.000
    C291    C    0.95407   0.29008   0.83979   1.000
    C292    C    0.05680   0.26809   0.78531   1.000
    C293    C    0.55681   0.26809   0.78531   1.000
    C294    C    0.43708   0.20619   0.78120   1.000
    C295    C    0.93708   0.20619   0.78120   1.000
    C296    C    0.48183   0.15141   0.72138   1.000
    C297    C    0.98184   0.15141   0.72138   1.000
    C298    C    0.04314   0.18365   0.72522   1.000
    C299    C    0.54315   0.18365   0.72522   1.000
    C300    C    0.46465   0.06209   0.65195   1.000
    C301    C    0.96466   0.06209   0.65195   1.000
    C302    C    0.18071   0.46371   0.95105   1.000
    C303    C    0.68072   0.46371   0.95105   1.000
    C304    C    0.23810   0.45406   0.89361   1.000
    C305    C    0.73811   0.45406   0.89361   1.000
    C306    C    0.25796   0.35946   0.83757   1.000
    C307    C    0.75797   0.35947   0.83757   1.000
    C308    C    0.27999   0.31978   0.89090   1.000
    C309    C    0.78000   0.31978   0.89090   1.000
    C310    C    0.30631   0.34662   0.76865   1.000
    C311    C    0.80632   0.34662   0.76865   1.000
    C312    C    0.28732   0.54969   0.70989   1.000
    C313    C    0.78733   0.54970   0.70989   1.000
    C314    C    0.39008   0.51716   0.73180   1.000
    C315    C    0.89009   0.51717   0.73180   1.000
    C316    C    0.27034   0.57506   0.79377   1.000
    C317    C    0.77035   0.57506   0.79377   1.000
    C318    C    0.31511   0.56997   0.84851   1.000
    C319    C    0.81512   0.56997   0.84851   1.000
    C320    C    0.37643   0.54155   0.81623   1.000
    C321    C    0.87645   0.54155   0.81623   1.000
    C322    C    0.29795   0.58988   0.93783   1.000
    C323    C    0.79796   0.58988   0.93783   1.000
    N324    N    0.37459   0.56651   0.51150   1.000
    N325    N    0.87460   0.56651   0.51150   1.000
    N326    N    0.42945   0.84179   0.52036   1.000
    N327    N    0.92946   0.84179   0.52036   1.000
    N328    N    0.20793   0.94502   0.43371   1.000
    N329    N    0.70795   0.94502   0.43371   1.000
    N330    N    0.26270   0.67851   0.15839   1.000
    N331    N    0.76272   0.67851   0.15839   1.000
    N332    N    0.04124   0.48864   0.05506   1.000
    N333    N    0.54125   0.48864   0.05506   1.000
    N334    N    0.09607   0.47996   0.32156   1.000
    N335    N    0.59608   0.47996   0.32156   1.000
    N336    N    0.12461   0.43354   0.48851   1.000
    N337    N    0.62462   0.43354   0.48851   1.000
    N338    N    0.17943   0.15825   0.47970   1.000
    N339    N    0.67944   0.15825   0.47970   1.000
    N340    N    0.45792   0.05499   0.56633   1.000
    N341    N    0.95793   0.05499   0.56633   1.000
    N342    N    0.01276   0.32147   0.84161   1.000
    N343    N    0.51277   0.32147   0.84161   1.000
    N344    N    0.29123   0.51134   0.94492   1.000
    N345    N    0.79124   0.51134   0.94492   1.000
    N346    N    0.34603   0.52009   0.67846   1.000
    N347    N    0.84604   0.52009   0.67846   1.000
    O348    O    0.26646   0.48737   0.51838   1.000
    O349    O    0.76647   0.48737   0.51838   1.000
    O350    O    0.21695   0.50321   0.41609   1.000
    O351    O    0.71696   0.50321   0.41609   1.000
    O352    O    0.09976   0.03105   0.51268   1.000
    O353    O    0.59977   0.03105   0.51260   1.000
    O354    O    0.05028   0.91292   0.49687   1.000
    O355    O    0.55029   0.91292   0.49687   1.000
    O356    O    0.43313   0.48165   0.96900   1.000
    O357    O    0.93314   0.48165   0.96900   1.000
    O358    O    0.38359   0.58402   0.08710   1.000
    O359    O    0.88359   0.58402   0.08712   1.000
    O360    O    0.01645   0.51270   0.48165   1.000
    O361    O    0.51646   0.51271   0.48165   1.000
    O362    O    0.46696   0.49683   0.58391   1.000
    O363    O    0.96697   0.49683   0.58391   1.000
    O364    O    0.34978   0.96898   0.48730   1.000
    O365    O    0.84979   0.96898   0.48730   1.000
    O366    O    0.30025   0.08710   0.50314   1.000
    O367    O    0.80026   0.08710   0.50314   1.000
    O368    O    0.18312   0.51834   0.03097   1.000
    O369    O    0.68313   0.51834   0.03097   1.000
    O370    O    0.13361   0.41598   0.91285   1.000
    O371    O    0.63362   0.41598   0.91285   1.000
loop_
    _geom_bond_atom_site_label_1
    _geom_bond_atom_site_label_2
    _geom_bond_distance
    _geom_bond_site_symmetry_2
    _ccdc_geom_bond_type
    H105   C133      1.10523      .   S
    H104   C132      1.09911      .   S
    O369   Zn10      2.22756      .   S
    O369   C303      1.27703  1_554   S
    O368   Zn9       2.22758      .   S
    O368   C302      1.27702  1_554   S
    H99    C133      1.09874      .   S
    H98    C132      1.09873      .   S
    C241   O358      1.26514      .   S
    C241   C243      1.54106      .   S
    C241   O356      1.27714  1_554   S
    C242   O359      1.26522      .   S
    C242   C244      1.54105      .   S
    C242   O357      1.27715  1_554   S
    N332   C132      1.49152      .   S
    N332   H72       1.03286      .   S
    N332   C244      1.48711  1_455   S
    N332   Zn3       2.11504  1_554   S
    N333   C133      1.49151      .   S
    N333   H73       1.03285      .   S
    N333   C243      1.48738      .   S
    N333   Zn4       2.11504  1_554   S
    C132   C257      1.50864      .   S
    C133   C258      1.50864      .   S
    H80    C248      1.09812      .   S
    H81    C247      1.09789  1_655   S
    H82    C247      1.10286      .   S
    H83    C248      1.09963      .   S
    Zn10   O359      2.17182      .   S
    Zn10   N331      2.07994      .   S
    Zn10   N345      2.11506  1_554   S
    Zn9    O358      2.17187      .   S
    Zn9    N330      2.07996      .   S
    Zn9    N344      2.11505  1_554   S
    C244   H75       1.10307      .   S
    C244   C245      1.54296  1_655   S
    C243   H74       1.10308      .   S
    C243   C246      1.54306      .   S
    C247   H78       1.09835      .   S
    C247   C245      1.53015      .   S
    C248   H79       1.09835      .   S
    C248   C246      1.53012      .   S
    H60    C229      1.08749      .   S
    H61    C230      1.08748      .   S
    H97    C260      1.09069      .   S
    H96    C259      1.09142      .   S
    C258   C260      1.39985      .   S
    C258   C256      1.39914      .   S
    C257   C259      1.40012      .   S
    C257   C255      1.39913      .   S
    N330   C229      1.34996      .   S
    N330   C231      1.35447      .   S
    N331   C230      1.34996      .   S
    N331   C232      1.35446      .   S
    C230   C234      1.39055      .   S
    C229   C233      1.39054      .   S
    C245   H77       1.09900  1_455   S
    C245   C249      1.53012      .   S
    C246   H76       1.09928      .   S
    C246   C250      1.53012      .   S
    C260   C254      1.38882      .   S
    C259   C253      1.38762      .   S
    H94    C256      1.09023      .   S
    H95    C255      1.08993  1_655   S
    H84    C249      1.10002      .   S
    H85    C250      1.10000      .   S
    C255   C251      1.39064      .   S
    C256   C252      1.39065      .   S
    H63    C232      1.08800      .   S
    H62    C231      1.08800      .   S
    C231   C237      1.38758      .   S
    C232   C238      1.38759      .   S
    H65    C234      1.09026      .   S
    H64    C233      1.09028      .   S
    C233   C235      1.39905      .   S
    C234   C236      1.39904      .   S
    C249   H86       1.09947      .   S
    C249   H88       1.09842      .   S
    C250   H87       1.09946      .   S
    C250   H89       1.09839      .   S
    H18    C100      1.09952      .   S
    H17    C207      1.09837      .   S
    C253   H92       1.08803      .   S
    C253   N334      1.35451      .   S
    C254   H93       1.08802      .   S
    C254   N335      1.35439      .   S
    C237   C235      1.40007      .   S
    C237   H66       1.09146      .   S
    C238   C236      1.40007      .   S
    C238   H67       1.09146      .   S
    H27    C101      1.09838      .   S
    H28    C102      1.09838      .   S
    C235   C239      1.50859      .   S
    C236   C240      1.50859      .   S
    C251   N334      1.34998      .   S
    C251   H90       1.08744      .   S
    C252   N335      1.34996      .   S
    C252   H91       1.08747      .   S
    C100   H20       1.09827      .   S
    C100   H22       1.09973      .   S
    C100   C206      1.53006      .   S
    C207   H19       1.09818      .   S
    C207   H21       1.09961      .   S
    C207   C205      1.53008      .   S
    N334   Zn5       2.07963      .   S
    N335   Zn6       2.07979      .   S
    H15    C205      1.09997      .   S
    H16    C206      1.09928      .   S
    H68    C239      1.09874      .   S
    H69    C240      1.09872      .   S
    C101   C205      1.53014      .   S
    C101   H25       1.09951      .   S
    C101   H23       1.09995      .   S
    C102   C206      1.53014      .   S
    C102   H26       1.09948      .   S
    C102   H24       1.09970      .   S
    C240   H71       1.09906      .   S
    C240   N329      1.49162      .   S
    C239   H70       1.09904      .   S
    C239   N328      1.49162      .   S
    H57    C228      1.09946      .   S
    H56    C227      1.09946      .   S
    C206   C204      1.54302      .   S
    C205   C203      1.54301      .   S
    H139   C278      1.09914      .   S
    H140   C279      1.09904      .   S
    H137   C278      1.09873      .   S
    H138   C279      1.09873      .   S
    H45    C222      1.10294      .   S
    H44    C221      1.10294      .   S
    H149   C286      1.09817      .   S
    H150   C287      1.09817      .   S
    H128   C272      1.09027      .   S
    H129   C273      1.09027      .   S
    H148   C287      1.09914      .   S
    H147   C286      1.09832      .   S
    C279   C275      1.50889      .   S
    C279   N337      1.49160      .   S
    C278   C274      1.50887      .   S
    C278   N336      1.49160      .   S
    O351   Zn6       2.17194      .   S
    O351   C202      1.26525      .   S
    O350   Zn5       2.17188      .   S
    O350   C201      1.26523      .   S
    H54    C227      1.10001      .   S
    H55    C228      1.09998      .   S
    H152   C287      1.09957      .   S
    H151   C286      1.09957      .   S
    C227   H58       1.09833      .   S
    C227   C223      1.53013      .   S
    C228   H59       1.09835      .   S
    C228   C224      1.53014      .   S
    C273   C275      1.39915      .   S
    C273   C269      1.39054      .   S
    C272   C274      1.39915      .   S
    C272   C268      1.39054      .   S
    C287   C285      1.53001      .   S
    C286   C284      1.53001      .   S
    C275   C277      1.40010      .   S
    C274   C276      1.40013      .   S
    N328   C221      1.48739      .   S
    N328   H42       1.03286      .   S
    N328   Zn1       2.11372  1_565   S
    N329   C222      1.48740      .   S
    N329   H43       1.03286      .   S
    N329   Zn2       2.11408  1_565   S
    C222   C224      1.54320      .   S
    C222   C220      1.54095      .   S
    C221   C223      1.54318      .   S
    C221   C219      1.54094      .   S
    H125   C269      1.08749      .   S
    H124   C268      1.08749      .   S
    C268   N338      1.34999      .   S
    Zn5    O360      2.22765      .   S
    Zn5    N336      2.11507      .   S
    C269   N339      1.34996      .   S
    Zn6    O361      2.22760      .   S
    Zn6    N337      2.11494      .   S
    C203   C201      1.54117      .   S
    C203   H13       1.10295      .   S
    C203   N324      1.48748      .   S
    C204   C202      1.54115      .   S
    C204   H14       1.10295      .   S
    C204   N325      1.48748      .   S
    C277   H131      1.09167      .   S
    C277   C271      1.38761      .   S
    C276   H130      1.09150      .   S
    C276   C270      1.38761      .   S
    C201   O348      1.27713      .   S
    C202   O349      1.27715      .   S
    Zn8    O365      2.22769      .   S
    Zn8    O354      2.17167  1_655   S
    Zn8    N327      2.08075      .   S
    Zn8    N341      2.11440  1_565   S
    Zn7    O364      2.22777      .   S
    Zn7    O355      2.17184      .   S
    Zn7    N326      2.08010      .   S
    Zn7    N340      2.11418  1_565   S
    H46    C223      1.09929      .   S
    H47    C224      1.09929      .   S
    C223   C225      1.52981      .   S
    C224   C226      1.52981      .   S
    N339   C271      1.35446      .   S
    N339   Zn2       2.08020      .   S
    N338   C270      1.35444      .   S
    N338   Zn1       2.07896      .   S
    H11    N324      1.03288      .   S
    H12    N325      1.03282      .   S
    O360   C134      1.27705      .   S
    O361   C135      1.27709      .   S
    C271   H127      1.08801      .   S
    C270   H126      1.08803      .   S
    O364   C280      1.27682  1_565   S
    O365   C281      1.27661  1_565   S
    C220   O355      1.26526      .   S
    C220   O353      1.27713  1_565   S
    C219   O354      1.26527      .   S
    C219   O352      1.27683  1_565   S
    N336   H106      1.03287      .   S
    N336   C136      1.48751      .   S
    N337   H107      1.03285      .   S
    N337   C261      1.48752      .   S
    H31    C210      1.08772  1_455   S
    H33    C209      1.08803      .   S
    O367   C281      1.26528      .   S
    O367   Zn2       2.17175      .   S
    O366   C280      1.26485      .   S
    O366   Zn1       2.17135      .   S
    N324   Zn32      2.11512      .   S
    N324   C217      1.49161      .   S
    N325   Zn0       2.11514      .   S
    N325   C218      1.49162      .   S
    C280   C282      1.54120      .   S
    O353   Zn2       2.22799      .   S
    C281   C283      1.54095      .   S
    O352   Zn1       2.22824      .   S
    C209   N326      1.35446      .   S
    C209   C215      1.38686      .   S
    C210   N327      1.35446      .   S
    C210   C216      1.38775      .   S
    O349   Zn0       2.22711      .   S
    O348   Zn32      2.22715      .   S
    N327   C208      1.34999      .   S
    N326   C103      1.34999      .   S
    C285   H146      1.09930      .   S
    C285   C283      1.54321      .   S
    C285   C289      1.53010      .   S
    C284   H145      1.09930      .   S
    C284   C282      1.54321      .   S
    C284   C288      1.53010      .   S
    H109   C261      1.10294      .   S
    H108   C136      1.10294      .   S
    C135   C261      1.54113      .   S
    C135   O362      1.26524      .   S
    C134   C136      1.54112      .   S
    C134   O363      1.26498  1_455   S
    H37    C216      1.09144      .   S
    H36    C215      1.09180      .   S
    C215   C213      1.40062      .   S
    C216   C214      1.40013      .   S
    C261   C263      1.54314      .   S
    C136   C262      1.54234      .   S
    Zn0    O363      2.17212      .   S
    Zn0    N347      2.07975      .   S
    Zn32   O362      2.17214      .   S
    Zn32   N346      2.07978      .   S
    C103   H29       1.08751      .   S
    C103   C211      1.39058      .   S
    C208   H30       1.08749      .   S
    C208   C212      1.39059      .   S
    H141   N340      1.03290      .   S
    H142   N341      1.01011  1_455   S
    H158   C289      1.09841      .   S
    H157   C288      1.09842      .   S
    C283   N341      1.48741      .   S
    C283   H144      1.10297      .   S
    C282   N340      1.48741      .   S
    C282   H143      1.10297      .   S
    N341   C301      1.49146      .   S
    N340   C300      1.49146      .   S
    C213   C211      1.39916      .   S
    C213   C217      1.50887      .   S
    C214   C212      1.39916      .   S
    C214   C218      1.50884      .   S
    C226   H53       1.09951      .   S
    C226   H49       1.09863      .   S
    C226   H51       1.09820      .   S
    C225   H52       1.09952      .   S
    C225   H48       1.09861      .   S
    C225   H50       1.09821      .   S
    C212   H35       1.09026      .   S
    C211   H34       1.09025      .   S
    C289   H153      1.09970  1_655   S
    C289   H156      1.09876      .   S
    C288   H154      1.09999      .   S
    C288   H155      1.09876      .   S
    C217   H38       1.09843      .   S
    C217   H40       1.09907      .   S
    C218   H39       1.09878      .   S
    C218   H41       1.09906      .   S
    H119   C267      1.09955      .   S
    H118   C266      1.09953      .   S
    H121   C267      1.09955      .   S
    H120   C266      1.09956      .   S
    C262   C266      1.53003      .   S
    C262   H110      1.09969      .   S
    C262   C264      1.53004      .   S
    C263   C267      1.52960      .   S
    C263   H111      1.09920      .   S
    C263   C265      1.53012      .   S
    H170   C300      1.09907      .   S
    H169   C301      1.09883  1_455   S
    H116   C264      1.09954      .   S
    H117   C265      1.09956      .   S
    C300   H167      1.09870      .   S
    C300   C296      1.50857      .   S
    C301   H168      1.09871      .   S
    C301   C297      1.50857      .   S
    C267   H123      1.09938      .   S
    C266   H122      1.09805      .   S
    H189   C312      1.08746      .   S
    H190   C313      1.08746      .   S
    H115   C265      1.09816      .   S
    H114   C264      1.09817      .   S
    N347   C313      1.34999      .   S
    N347   C315      1.35451      .   S
    N346   C312      1.35001      .   S
    N346   C314      1.35451      .   S
    C265   H113      1.09834      .   S
    C264   H112      1.09834      .   S
    H165   C298      1.09143      .   S
    H166   C299      1.09143      .   S
    H191   C314      1.08806      .   S
    H192   C315      1.08806      .   S
    C313   C317      1.39055      .   S
    C312   C316      1.39054      .   S
    C296   C299      1.40009      .   S
    C296   C294      1.39874      .   S
    C297   C298      1.39977  1_655   S
    C297   C295      1.39874      .   S
    H188   C311      1.09840      .   S
    H187   C310      1.09841      .   S
    C299   C293      1.38761      .   S
    C298   C292      1.38760      .   S
    H185   C310      1.09950      .   S
    H186   C311      1.09952      .   S
    C314   C320      1.38754      .   S
    C315   C321      1.38755      .   S
    C310   H183      1.10000      .   S
    C310   C306      1.53021      .   S
    C311   H184      1.10000      .   S
    C311   C307      1.53021      .   S
    C295   H164      1.09040      .   S
    C295   C291      1.39068      .   S
    C294   H163      1.09038      .   S
    C294   C290      1.38766      .   S
    C293   H162      1.08800      .   S
    C293   N343      1.35448      .   S
    C292   H161      1.08803      .   S
    C292   N342      1.35448      .   S
    C317   H194      1.09031      .   S
    C317   C319      1.39916      .   S
    C316   H193      1.09031      .   S
    C316   C318      1.39916      .   S
    H175   C306      1.09933      .   S
    H176   C307      1.09932      .   S
    C321   C319      1.40013      .   S
    C321   H196      1.09150      .   S
    C320   C318      1.40013      .   S
    C320   H195      1.09151      .   S
    C306   C308      1.52997      .   S
    C306   C304      1.54304      .   S
    C307   C309      1.52999      .   S
    C307   C305      1.54303      .   S
    C290   N343      1.34737      .   S
    C290   H159      1.09331      .   S
    C291   N342      1.34962  1_655   S
    C291   H160      1.08748      .   S
    N343   Zn4       2.07981      .   S
    N342   Zn3       2.07982      .   S
    C319   C323      1.50879      .   S
    C318   C322      1.50879      .   S
    H177   C308      1.09840      .   S
    H178   C309      1.09840      .   S
    H173   C304      1.10305      .   S
    H174   C305      1.10307      .   S
    C308   H181      1.09961      .   S
    C308   H179      1.09818      .   S
    C309   H182      1.09962      .   S
    C309   H180      1.09818      .   S
    C304   N344      1.48743      .   S
    C304   C302      1.54117      .   S
    C305   N345      1.48743      .   S
    C305   C303      1.54118      .   S
    O370   Zn3       2.17164      .   S
    O370   C302      1.26527      .   S
    O371   Zn4       2.17167      .   S
    O371   C303      1.26526      .   S
    Zn3    O357      2.22721  1_455   S
    Zn4    O356      2.22755      .   S
    H171   N344      1.03286      .   S
    H172   N345      1.03285      .   S
    C323   N345      1.49148      .   S
    C323   H198      1.09874      .   S
    C323   H200      1.09896      .   S
    C322   N344      1.49148      .   S
    C322   H197      1.09873      .   S
    C322   H199      1.09903      .   S
