# CIF file generated by openbabel 2.4.90, see http://openbabel.sf.net
data_I
_chemical_name_common ''
_cell_length_a 20.994
_cell_length_b 18.038
_cell_length_c 18.041
_cell_angle_alpha 120.021
_cell_angle_beta 90.005
_cell_angle_gamma 89.982
_space_group_name_H-M_alt 'P 1'
_space_group_name_Hall 'P 1'
loop_
    _symmetry_equiv_pos_as_xyz
    x,y,z
loop_
    _atom_site_label
    _atom_site_type_symbol
    _atom_site_fract_x
    _atom_site_fract_y
    _atom_site_fract_z
    _atom_site_occupancy
    Zr0     Zr   0.36678   0.47367   0.54992   1.000
    Zr1     Zr   0.86678   0.47367   0.54992   1.000
    Zr2     Zr   0.20010   0.07632   0.52630   1.000
    Zr3     Zr   0.70011   0.07632   0.52639   1.000
    Zr4     Zr   0.03345   0.45006   0.92375   1.000
    Zr5     Zr   0.53346   0.45006   0.92375   1.000
    Zr6     Zr   0.11678   0.52639   0.45010   1.000
    Zr7     Zr   0.61679   0.52639   0.45011   1.000
    Zr8     Zr   0.45012   0.92369   0.47365   1.000
    Zr9     Zr   0.95013   0.92369   0.47360   1.000
    Zr10    Zr   0.28344   0.54992   0.07623   1.000
    Zr11    Zr   0.78345   0.54992   0.07623   1.000
    N12     N    0.62172   0.37830   0.53563   1.000
    O13     O    0.65575   0.24779   0.51934   1.000
    O14     O    0.51930   0.43178   0.55127   1.000
    N15     N    0.03834   0.53583   0.15741   1.000
    O16     O    0.93593   0.55140   0.11954   1.000
    O17     O    0.07238   0.51950   0.27162   1.000
    N18     N    0.70502   0.84267   0.37849   1.000
    O19     O    0.60261   0.88049   0.43187   1.000
    O20     O    0.73905   0.72844   0.24790   1.000
    N21     N    0.12171   0.37830   0.53563   1.000
    O22     O    0.15574   0.24779   0.51932   1.000
    O23     O    0.01929   0.43178   0.55127   1.000
    N24     N    0.87171   0.62176   0.46438   1.000
    O25     O    0.90575   0.75225   0.48068   1.000
    O26     O    0.76929   0.56828   0.44874   1.000
    N27     N    0.95497   0.15734   0.62153   1.000
    O28     O    0.98904   0.27155   0.75211   1.000
    O29     O    0.85258   0.11953   0.56815   1.000
    N30     N    0.78835   0.46417   0.84255   1.000
    O31     O    0.82238   0.48052   0.72837   1.000
    O32     O    0.68594   0.44859   0.88043   1.000
    N33     N    0.28833   0.46417   0.84255   1.000
    O34     O    0.32237   0.48052   0.72837   1.000
    O35     O    0.18593   0.44859   0.88043   1.000
    N36     N    0.37170   0.62176   0.46438   1.000
    O37     O    0.40574   0.75225   0.48069   1.000
    O38     O    0.26928   0.56828   0.44874   1.000
    N39     N    0.20501   0.84267   0.37849   1.000
    O40     O    0.10261   0.88049   0.43186   1.000
    O41     O    0.23904   0.72844   0.24790   1.000
    N42     N    0.53835   0.53583   0.15739   1.000
    O43     O    0.43593   0.55140   0.11953   1.000
    O44     O    0.57239   0.51950   0.27161   1.000
    N45     N    0.45500   0.15734   0.62151   1.000
    O46     O    0.35259   0.11953   0.56811   1.000
    O47     O    0.48906   0.27155   0.75209   1.000
    O48     O    0.85769   0.56103   0.49841   1.000
    O49     O    0.44099   0.06259   0.56087   1.000
    O50     O    0.35768   0.56103   0.49841   1.000
    O51     O    0.69100   0.93742   0.43913   1.000
    O52     O    0.10768   0.43903   0.50161   1.000
    O53     O    0.52434   0.50172   0.06264   1.000
    O54     O    0.94098   0.06259   0.56087   1.000
    O55     O    0.77433   0.49827   0.93732   1.000
    O56     O    0.27432   0.49827   0.93732   1.000
    O57     O    0.60769   0.43903   0.50161   1.000
    O58     O    0.02433   0.50172   0.06265   1.000
    O59     O    0.19099   0.93742   0.43912   1.000
loop_
    _geom_bond_atom_site_label_1
    _geom_bond_atom_site_label_2
    _geom_bond_distance
    _geom_bond_site_symmetry_2
    _ccdc_geom_bond_type
    N12    O13       2.33347      .   S
    Zr3    O13       3.29279      .   S
    N12    O14       2.31530      .   S
    Zr0    O14       3.29263      .   S
    N15    O16       2.31504  1_455   S
    Zr11   O16       3.29206      .   S
    N15    O17       2.33452      .   S
    Zr6    O17       3.29423      .   S
    N18    O19       2.31460      .   S
    Zr8    O19       3.29180      .   S
    N18    O20       2.33416      .   S
    Zr11   O20       3.29387      .   S
    N21    O22       2.33333      .   S
    Zr2    O22       3.29218      .   S
    N21    O23       2.31512      .   S
    Zr1    O23       3.29242  1_655   S
    N24    O25       2.33362      .   S
    Zr9    O25       3.29302      .   S
    N24    O26       2.31566      .   S
    Zr7    O26       3.29283      .   S
    N27    O28       2.33441      .   S
    Zr4    O28       3.29399  1_455   S
    N27    O29       2.31447      .   S
    Zr3    O29       3.29152      .   S
    N30    O31       2.33439      .   S
    Zr1    O31       3.29410      .   S
    N30    O32       2.31527      .   S
    Zr5    O32       3.29228      .   S
    N33    O34       2.33441      .   S
    Zr0    O34       3.29413      .   S
    N33    O35       2.31524      .   S
    Zr4    O35       3.29223      .   S
    N36    O37       2.33353      .   S
    Zr8    O37       3.29269      .   S
    N36    O38       2.31565      .   S
    Zr6    O38       3.29280      .   S
    N39    O40       2.31442      .   S
    Zr9    O40       3.29141  1_655   S
    N39    O41       2.33418      .   S
    Zr10   O41       3.29389      .   S
    N42    O43       2.31517      .   S
    Zr10   O43       3.29217      .   S
    N42    O44       2.33468      .   S
    Zr7    O44       3.29447      .   S
    N45    O46       2.31496      .   S
    Zr2    O46       3.29209      .   S
    N45    O47       2.33445      .   S
    Zr5    O47       3.29401      .   S
    Zr1    O48       2.20204      .   S
    N24    O48       1.52858      .   S
    Zr8    O49       2.20115  1_565   S
    N45    O49       1.52767      .   S
    N36    O50       1.52859      .   S
    Zr0    O50       2.20205      .   S
    Zr3    O51       2.20123  1_545   S
    N18    O51       1.52753      .   S
    Zr6    O52       2.20198      .   S
    N21    O52       1.52833      .   S
    N42    O53       1.52800      .   S
    Zr5    O53       2.20166  1_556   S
    Zr9    O54       2.20133  1_565   S
    N27    O54       1.52766      .   S
    Zr11   O55       2.20202  1_554   S
    N30    O55       1.52827      .   S
    Zr10   O56       2.20202  1_554   S
    N33    O56       1.52827      .   S
    Zr7    O57       2.20190      .   S
    N12    O57       1.52833      .   S
    Zr4    O58       2.20176  1_556   S
    N15    O58       1.52810      .   S
    Zr2    O59       2.20103  1_545   S
    N39    O59       1.52750      .   S
