# CIF file generated by openbabel 2.4.90, see http://openbabel.sf.net
data_I
_chemical_name_common ''
_cell_length_a 13.248
_cell_length_b 14.544
_cell_length_c 18.124
_cell_angle_alpha 89.98
_cell_angle_beta 89.858
_cell_angle_gamma 89.997
_space_group_name_H-M_alt 'P 1'
_space_group_name_Hall 'P 1'
loop_
    _symmetry_equiv_pos_as_xyz
    x,y,z
loop_
    _atom_site_label
    _atom_site_type_symbol
    _atom_site_fract_x
    _atom_site_fract_y
    _atom_site_fract_z
    _atom_site_occupancy
    H0      H    0.22232   0.15830   0.28373   1.000
    H1      H    0.09596   0.05052   0.23132   1.000
    H2      H    0.87656   0.25471   0.22749   1.000
    H3      H    0.56845   0.96032   0.00828   1.000
    H4      H    0.58647   0.87400   0.93960   1.000
    H5      H    0.69391   0.07925   0.02712   1.000
    H6      H    0.66445   0.96102   0.11700   1.000
    H7      H    0.75730   0.87383   0.13334   1.000
    H8      H    0.78624   0.75664   0.04169   1.000
    H9      H    0.27774   0.15813   0.71663   1.000
    H10     H    0.40403   0.05036   0.76907   1.000
    H11     H    0.62321   0.25481   0.77353   1.000
    H12     H    0.93162   0.96054   0.00000   1.000
    H13     H    0.91380   0.87427   0.06038   1.000
    H14     H    0.80599   0.07933   0.97259   1.000
    H15     H    0.83568   0.96089   0.88284   1.000
    H16     H    0.74288   0.87358   0.86667   1.000
    H17     H    0.71416   0.75652   0.95851   1.000
    H18     H    0.27697   0.65886   0.78410   1.000
    H19     H    0.40321   0.55087   0.73127   1.000
    H20     H    0.62317   0.75460   0.72721   1.000
    H21     H    0.93130   0.46070   0.50786   1.000
    H22     H    0.91343   0.37437   0.43922   1.000
    H23     H    0.80569   0.57950   0.52724   1.000
    H24     H    0.83549   0.46114   0.61698   1.000
    H25     H    0.74271   0.37383   0.63363   1.000
    H26     H    0.71392   0.25670   0.54203   1.000
    H27     H    0.22240   0.65843   0.21665   1.000
    H28     H    0.09575   0.55075   0.26938   1.000
    H29     H    0.87615   0.75479   0.27263   1.000
    H30     H    0.56812   0.46040   0.49266   1.000
    H31     H    0.58624   0.37412   0.56133   1.000
    H32     H    0.69358   0.57943   0.47315   1.000
    H33     H    0.66395   0.46102   0.38352   1.000
    H34     H    0.75685   0.37385   0.36688   1.000
    H35     H    0.78593   0.25673   0.45858   1.000
    H36     H    0.72300   0.34117   0.21590   1.000
    H37     H    0.59676   0.44916   0.26872   1.000
    H38     H    0.37680   0.24543   0.27279   1.000
    H39     H    0.06867   0.53932   0.49214   1.000
    H40     H    0.08653   0.62566   0.56078   1.000
    H41     H    0.19429   0.42053   0.47277   1.000
    H42     H    0.16448   0.53888   0.38302   1.000
    H43     H    0.25725   0.62619   0.36637   1.000
    H44     H    0.28603   0.74333   0.45797   1.000
    H45     H    0.77757   0.34160   0.78335   1.000
    H46     H    0.90422   0.44928   0.73062   1.000
    H47     H    0.12382   0.24524   0.72737   1.000
    H48     H    0.43184   0.53965   0.50734   1.000
    H49     H    0.41372   0.62592   0.43866   1.000
    H50     H    0.30639   0.42060   0.52685   1.000
    H51     H    0.33602   0.53903   0.61648   1.000
    H52     H    0.24311   0.62618   0.63312   1.000
    H53     H    0.21402   0.74330   0.54142   1.000
    H54     H    0.77765   0.84173   0.71628   1.000
    H55     H    0.90401   0.94951   0.76868   1.000
    H56     H    0.12341   0.74532   0.77251   1.000
    H57     H    0.43152   0.03971   0.00000   1.000
    H58     H    0.41349   0.12604   0.06041   1.000
    H59     H    0.30606   0.92078   0.97288   1.000
    H60     H    0.33552   0.03902   0.88300   1.000
    H61     H    0.24267   0.12620   0.86667   1.000
    H62     H    0.21373   0.24339   0.95832   1.000
    H63     H    0.72223   0.84190   0.28337   1.000
    H64     H    0.59594   0.94967   0.23094   1.000
    H65     H    0.37676   0.74522   0.22647   1.000
    H66     H    0.06835   0.03949   0.00846   1.000
    H67     H    0.08617   0.12576   0.93962   1.000
    H68     H    0.19398   0.92070   0.02742   1.000
    H69     H    0.16428   0.03914   0.11717   1.000
    H70     H    0.25709   0.12645   0.13333   1.000
    H71     H    0.28581   0.24351   0.04149   1.000
    C72     C    0.01741   0.79940   0.22620   1.000
    C73     C    0.11847   0.77385   0.21351   1.000
    C74     C    0.14605   0.68261   0.22793   1.000
    C75     C    0.07615   0.62214   0.25810   1.000
    C76     C    0.95341   0.23499   0.24126   1.000
    C77     C    0.87562   0.91629   0.01878   1.000
    C78     C    0.77926   0.91610   0.90895   1.000
    C79     C    0.48224   0.79942   0.77407   1.000
    C80     C    0.38117   0.77409   0.78701   1.000
    C81     C    0.35335   0.68288   0.77268   1.000
    C82     C    0.42302   0.62223   0.74244   1.000
    C83     C    0.54642   0.23504   0.75962   1.000
    C84     C    0.62456   0.91612   0.98115   1.000
    C85     C    0.72092   0.91623   0.09096   1.000
    C86     C    0.48238   0.29934   0.72678   1.000
    C87     C    0.38147   0.27375   0.71392   1.000
    C88     C    0.35393   0.18240   0.72809   1.000
    C89     C    0.42367   0.12185   0.75812   1.000
    C90     C    0.54623   0.73502   0.74113   1.000
    C91     C    0.62428   0.41623   0.51960   1.000
    C92     C    0.72049   0.41626   0.40936   1.000
    C93     C    0.01746   0.29933   0.27396   1.000
    C94     C    0.11844   0.27378   0.28670   1.000
    C95     C    0.14603   0.18247   0.27245   1.000
    C96     C    0.07627   0.12194   0.24246   1.000
    C97     C    0.95316   0.73512   0.25902   1.000
    C98     C    0.87527   0.41641   0.48092   1.000
    C99     C    0.77904   0.41631   0.59115   1.000
    C100    C    0.75002   0.03534   0.99989   1.000
    C101    C    0.75017   0.80058   0.00006   1.000
    C102    C    0.74967   0.53551   0.50021   1.000
    C103    C    0.74989   0.30073   0.50028   1.000
    C104    C    0.51759   0.70069   0.27322   1.000
    C105    C    0.61850   0.72628   0.28608   1.000
    C106    C    0.64604   0.81763   0.27191   1.000
    C107    C    0.57630   0.87818   0.24188   1.000
    C108    C    0.45374   0.26501   0.25887   1.000
    C109    C    0.37568   0.58381   0.48040   1.000
    C110    C    0.27947   0.58377   0.59064   1.000
    C111    C    0.98250   0.70070   0.72604   1.000
    C112    C    0.88153   0.72625   0.71330   1.000
    C113    C    0.85394   0.81756   0.72755   1.000
    C114    C    0.92370   0.87809   0.75754   1.000
    C115    C    0.04681   0.26491   0.74098   1.000
    C116    C    0.12469   0.58361   0.51908   1.000
    C117    C    0.22092   0.58371   0.40885   1.000
    C118    C    0.98256   0.20063   0.77380   1.000
    C119    C    0.88150   0.22618   0.78649   1.000
    C120    C    0.85392   0.31743   0.77207   1.000
    C121    C    0.92382   0.37789   0.74190   1.000
    C122    C    0.04656   0.76504   0.75874   1.000
    C123    C    0.12434   0.08374   0.98122   1.000
    C124    C    0.22071   0.08393   0.09105   1.000
    C125    C    0.51773   0.20061   0.22593   1.000
    C126    C    0.61880   0.22594   0.21300   1.000
    C127    C    0.64662   0.31715   0.22732   1.000
    C128    C    0.57695   0.37780   0.25756   1.000
    C129    C    0.45355   0.76499   0.24038   1.000
    C130    C    0.37541   0.08391   0.01886   1.000
    C131    C    0.27905   0.08380   0.90904   1.000
    C132    C    0.25031   0.46452   0.49979   1.000
    C133    C    0.25006   0.69931   0.49971   1.000
    C134    C    0.24995   0.96468   0.00011   1.000
    C135    C    0.24979   0.19944   0.99994   1.000
    N136    N    0.98137   0.64872   0.27595   1.000
    N137    N    0.80029   0.97707   0.05687   1.000
    N138    N    0.82788   0.85759   0.96369   1.000
    N139    N    0.51783   0.64863   0.72438   1.000
    N140    N    0.69985   0.97693   0.94296   1.000
    N141    N    0.67239   0.85758   0.03632   1.000
    N142    N    0.51826   0.14850   0.77623   1.000
    N143    N    0.69959   0.47709   0.55739   1.000
    N144    N    0.67204   0.35765   0.46427   1.000
    N145    N    0.98162   0.14850   0.22454   1.000
    N146    N    0.79987   0.47717   0.44307   1.000
    N147    N    0.82761   0.35778   0.53628   1.000
    N148    N    0.48171   0.85153   0.22377   1.000
    N149    N    0.30038   0.52294   0.44262   1.000
    N150    N    0.32792   0.64238   0.53573   1.000
    N151    N    0.01835   0.85153   0.77546   1.000
    N152    N    0.20010   0.52286   0.55693   1.000
    N153    N    0.17234   0.64225   0.46372   1.000
    N154    N    0.01860   0.35131   0.72405   1.000
    N155    N    0.19968   0.02296   0.94313   1.000
    N156    N    0.17209   0.14244   0.03632   1.000
    N157    N    0.48214   0.35141   0.27562   1.000
    N158    N    0.30012   0.02310   0.05704   1.000
    N159    N    0.32758   0.14245   0.96368   1.000
loop_
    _geom_bond_atom_site_label_1
    _geom_bond_atom_site_label_2
    _geom_bond_distance
    _geom_bond_site_symmetry_2
    _ccdc_geom_bond_type
    H12    C77       1.03868      .   S
    H57    C130      1.03993      .   S
    C101   N141      1.47582      .   S
    C101   H8        1.09874      .   S
    C101   H17       1.09883  1_554   S
    C101   N138      1.47591  1_554   S
    C134   H68       1.09634      .   S
    C134   N158      1.49406  1_565   S
    C134   N155      1.49374  1_564   S
    C134   H59       1.09645  1_554   S
    H3     C84       1.09815  1_554   S
    H66    C123      1.09821  1_554   S
    C77    N137      1.50037      .   S
    C77    H13       1.09523      .   S
    C77    N138      1.45939  1_554   S
    C130   N158      1.50076      .   S
    C130   H58       1.09510      .   S
    C130   N159      1.45906  1_554   S
    H5     C100      1.09653  1_554   S
    N156   C124      1.45801      .   S
    N156   C123      1.45938  1_554   S
    N156   C135      1.47581  1_554   S
    N141   C85       1.45788      .   S
    N141   C84       1.45905  1_554   S
    H71    C135      1.09892  1_554   S
    N137   C85       1.50562      .   S
    N137   C100      1.49366  1_564   S
    N158   C124      1.50551      .   S
    C85    H6        1.09773      .   S
    C85    H7        1.09723      .   S
    C124   H69       1.09779      .   S
    C124   H70       1.09730      .   S
    C126   C125      1.40782      .   S
    C126   C127      1.40130      .   S
    C73    C72       1.40774      .   S
    C73    C74       1.40110      .   S
    H36    C127      1.08984      .   S
    H27    C74       1.08984      .   S
    N148   C129      1.34656      .   S
    N148   C107      1.35293      .   S
    N145   C76       1.34666      .   S
    N145   C96       1.35239  1_655   S
    C125   C108      1.39650      .   S
    C72    C97       1.39629  1_455   S
    H65    C129      1.08738      .   S
    C127   C128      1.38852      .   S
    H2     C76       1.08734      .   S
    C74    C75       1.38820      .   S
    H64    C107      1.08977      .   S
    H1     C96       1.08968      .   S
    C129   C104      1.39668      .   S
    C76    C93       1.39642  1_655   S
    C107   C106      1.38829      .   S
    C96    C95       1.38836      .   S
    C128   H37       1.08976      .   S
    C128   N157      1.35279      .   S
    C75    H28       1.08964      .   S
    C75    N136      1.35235  1_455   S
    C108   H38       1.08736      .   S
    C108   N157      1.34663      .   S
    C97    H29       1.08735      .   S
    C97    N136      1.34649      .   S
    C106   H63       1.08986      .   S
    C106   C105      1.40132      .   S
    C95    H0        1.08985      .   S
    C95    C94       1.40121      .   S
    C104   C105      1.40768      .   S
    C93    C94       1.40791      .   S
    H43    C117      1.09724      .   S
    H34    C92       1.09724      .   S
    H42    C117      1.09785      .   S
    H33    C92       1.09794      .   S
    C117   N149      1.50559      .   S
    C117   N153      1.45782      .   S
    C92    N146      1.50582      .   S
    C92    N144      1.45780      .   S
    H49    C109      1.09504      .   S
    H22    C98       1.09506      .   S
    N149   C109      1.50068      .   S
    N149   C132      1.49389      .   S
    N146   C98       1.50075      .   S
    N146   C102      1.49401      .   S
    H44    C133      1.09881      .   S
    H35    C103      1.09877      .   S
    N153   C133      1.47587      .   S
    N153   C116      1.45906      .   S
    N144   C103      1.47587      .   S
    N144   C91       1.45909      .   S
    H41    C132      1.09644      .   S
    H32    C102      1.09643      .   S
    C109   H48       1.09813      .   S
    C109   N150      1.45908      .   S
    C98    H21       1.09819      .   S
    C98    N147      1.45906      .   S
    H39    C116      1.09819      .   S
    H30    C91       1.09813      .   S
    C133   N150      1.47588      .   S
    C133   H53       1.09877      .   S
    C132   H50       1.09644      .   S
    C132   N152      1.49400      .   S
    C102   H23       1.09644      .   S
    C102   N143      1.49391      .   S
    C103   N147      1.47585      .   S
    C103   H26       1.09883      .   S
    C116   N152      1.50076      .   S
    C116   H40       1.09505      .   S
    C91    N143      1.50068      .   S
    C91    H31       1.09503      .   S
    N150   C110      1.45779      .   S
    N147   C99       1.45783      .   S
    N152   C110      1.50582      .   S
    N143   C99       1.50558      .   S
    C110   H51       1.09794      .   S
    C110   H52       1.09723      .   S
    C99    H24       1.09784      .   S
    C99    H25       1.09724      .   S
    C112   C111      1.40790      .   S
    C112   C113      1.40120      .   S
    C87    C86       1.40767      .   S
    C87    C88       1.40133      .   S
    H54    C113      1.08986      .   S
    H9     C88       1.08986      .   S
    N154   C115      1.34650      .   S
    N154   C121      1.35234  1_455   S
    N139   C90       1.34664      .   S
    N139   C82       1.35279      .   S
    C111   C122      1.39644  1_655   S
    C86    C83       1.39669      .   S
    H20    C90       1.08738      .   S
    H47    C115      1.08734      .   S
    C113   C114      1.38836      .   S
    C88    C89       1.38829      .   S
    H46    C121      1.08965      .   S
    H19    C82       1.08977      .   S
    C115   C118      1.39629  1_455   S
    C90    C79       1.39651      .   S
    C121   C120      1.38819      .   S
    C82    C81       1.38853      .   S
    C114   H55       1.08968      .   S
    C114   N151      1.35239  1_655   S
    C89    H10       1.08979      .   S
    C89    N142      1.35291      .   S
    C122   H56       1.08733      .   S
    C122   N151      1.34665      .   S
    C83    H11       1.08738      .   S
    C83    N142      1.34656      .   S
    C120   H45       1.08982      .   S
    C120   C119      1.40110      .   S
    C81    H18       1.08982      .   S
    C81    C80       1.40129      .   S
    C118   C119      1.40774      .   S
    C79    C80       1.40781      .   S
    H61    C131      1.09723      .   S
    H16    C78       1.09730      .   S
    H15    C78       1.09779      .   S
    H60    C131      1.09775      .   S
    C78    N140      1.50552      .   S
    C78    N138      1.45798      .   S
    C131   N155      1.50562      .   S
    C131   N159      1.45787      .   S
    H4     C84       1.09511      .   S
    H67    C123      1.09522      .   S
    N140   C84       1.50075      .   S
    N140   C100      1.49396  1_565   S
    N155   C123      1.50037      .   S
    H62    C135      1.09881      .   S
    N159   C135      1.47575      .   S
    H14    C100      1.09643      .   S
