# CIF file generated by openbabel 2.4.90, see http://openbabel.sf.net
data_I
_chemical_name_common ''
_cell_length_a 13.248
_cell_length_b 14.544
_cell_length_c 18.124
_cell_angle_alpha 89.98
_cell_angle_beta 89.858
_cell_angle_gamma 89.997
_space_group_name_H-M_alt 'P 1'
_space_group_name_Hall 'P 1'
loop_
    _symmetry_equiv_pos_as_xyz
    x,y,z
loop_
    _atom_site_label
    _atom_site_type_symbol
    _atom_site_fract_x
    _atom_site_fract_y
    _atom_site_fract_z
    _atom_site_occupancy
    Lv0     Lv   0.24988   0.08276   0.00042   1.000
    Lv1     Lv   0.44568   0.19158   0.74689   1.000
    Lv2     Lv   0.25019   0.58263   0.49974   1.000
    Lv3     Lv   0.75009   0.91727   0.00035   1.000
    Lv4     Lv   0.94574   0.80841   0.74623   1.000
    Lv5     Lv   0.05423   0.19162   0.25377   1.000
    Lv6     Lv   0.44524   0.69184   0.75381   1.000
    Lv7     Lv   0.55429   0.80846   0.25312   1.000
    Lv8     Lv   0.05410   0.69176   0.24660   1.000
    Lv9     Lv   0.74977   0.41741   0.50025   1.000
    Lv10    Lv   0.94587   0.30827   0.75340   1.000
    Lv11    Lv   0.55473   0.30819   0.24619   1.000
