# CIF file generated by openbabel 2.4.90, see http://openbabel.sf.net
data_I
_chemical_name_common ''
_cell_length_a 13.248
_cell_length_b 14.544
_cell_length_c 18.124
_cell_angle_alpha 89.98
_cell_angle_beta 89.858
_cell_angle_gamma 89.997
_space_group_name_H-M_alt 'P 1'
_space_group_name_Hall 'P 1'
loop_
    _symmetry_equiv_pos_as_xyz
    x,y,z
loop_
    _atom_site_label
    _atom_site_type_symbol
    _atom_site_fract_x
    _atom_site_fract_y
    _atom_site_fract_z
    _atom_site_occupancy
    Zr0     Zr   0.86643   0.55093   0.33250   1.000
    Zr1     Zr   0.63322   0.55093   0.66804   1.000
    Zr2     Zr   0.63330   0.05069   0.83246   1.000
    Zr3     Zr   0.86710   0.05085   0.16738   1.000
    Zr4     Zr   0.36667   0.94934   0.16754   1.000
    Zr5     Zr   0.13287   0.94919   0.83262   1.000
    Zr6     Zr   0.13354   0.44910   0.66750   1.000
    Zr7     Zr   0.36676   0.44910   0.33196   1.000
    Zr8     Zr   0.97355   0.88999   0.20241   1.000
    Zr9     Zr   0.20051   0.33985   0.30918   1.000
    Zr10    Zr   0.52659   0.88985   0.79779   1.000
    Zr11    Zr   0.29950   0.33966   0.69091   1.000
    Zr12    Zr   0.52649   0.38988   0.70295   1.000
    Zr13    Zr   0.29928   0.84047   0.80961   1.000
    Zr14    Zr   0.97340   0.38997   0.29762   1.000
    Zr15    Zr   0.20054   0.83994   0.19081   1.000
    Zr16    Zr   0.47348   0.61015   0.29705   1.000
    Zr17    Zr   0.70069   0.15956   0.19039   1.000
    Zr18    Zr   0.02657   0.61006   0.70239   1.000
    Zr19    Zr   0.79943   0.16009   0.80919   1.000
    Zr20    Zr   0.02642   0.11004   0.79759   1.000
    Zr21    Zr   0.79946   0.66018   0.69083   1.000
    Zr22    Zr   0.47338   0.11018   0.20221   1.000
    Zr23    Zr   0.70047   0.66037   0.30909   1.000
    Zr24    Zr   0.88603   0.91078   0.22781   1.000
    Zr25    Zr   0.02063   0.43920   0.34377   1.000
    Zr26    Zr   0.25330   0.32056   0.36543   1.000
    Zr27    Zr   0.21816   0.40691   0.26583   1.000
    Zr28    Zr   0.61373   0.91070   0.77177   1.000
    Zr29    Zr   0.47951   0.43892   0.65649   1.000
    Zr30    Zr   0.24818   0.32059   0.63397   1.000
    Zr31    Zr   0.28046   0.40636   0.73433   1.000
    Zr32    Zr   0.61379   0.41070   0.72838   1.000
    Zr33    Zr   0.47995   0.93868   0.84469   1.000
    Zr34    Zr   0.24480   0.82038   0.86506   1.000
    Zr35    Zr   0.28353   0.90878   0.76723   1.000
    Zr36    Zr   0.88598   0.41066   0.27226   1.000
    Zr37    Zr   0.02103   0.93909   0.15610   1.000
    Zr38    Zr   0.25345   0.82061   0.13446   1.000
    Zr39    Zr   0.21810   0.90697   0.23410   1.000
    Zr40    Zr   0.38618   0.58933   0.27162   1.000
    Zr41    Zr   0.52002   0.06135   0.15531   1.000
    Zr42    Zr   0.75517   0.17965   0.13494   1.000
    Zr43    Zr   0.71644   0.09125   0.23277   1.000
    Zr44    Zr   0.11399   0.58937   0.72774   1.000
    Zr45    Zr   0.97894   0.06094   0.84391   1.000
    Zr46    Zr   0.74652   0.17942   0.86554   1.000
    Zr47    Zr   0.78187   0.09306   0.76590   1.000
    Zr48    Zr   0.11395   0.08925   0.77220   1.000
    Zr49    Zr   0.97934   0.56083   0.65623   1.000
    Zr50    Zr   0.74667   0.67948   0.63457   1.000
    Zr51    Zr   0.78181   0.59312   0.73417   1.000
    Zr52    Zr   0.38624   0.08933   0.22823   1.000
    Zr53    Zr   0.52046   0.56111   0.34351   1.000
    Zr54    Zr   0.75179   0.67944   0.36603   1.000
    Zr55    Zr   0.71951   0.59367   0.26568   1.000
    O56     O    0.31006   0.88498   0.15100   1.000
    O57     O    0.22700   0.83027   0.16263   1.000
    O58     O    0.81113   0.11525   0.15116   1.000
    O59     O    0.72793   0.16961   0.16267   1.000
    O60     O    0.49670   0.08577   0.17876   1.000
    O61     O    0.99729   0.91454   0.17925   1.000
    O62     O    0.87656   0.98081   0.19759   1.000
    O63     O    0.79177   0.07105   0.20007   1.000
    O64     O    0.37646   0.01934   0.19789   1.000
    O65     O    0.29239   0.92816   0.20082   1.000
    O66     O    0.70857   0.12541   0.21158   1.000
    O67     O    0.20932   0.87346   0.21245   1.000
    O68     O    0.42981   0.09976   0.21522   1.000
    O69     O    0.92979   0.90039   0.21511   1.000
    O70     O    0.70999   0.62702   0.28738   1.000
    O71     O    0.79297   0.57230   0.29909   1.000
    O72     O    0.20934   0.37338   0.28750   1.000
    O73     O    0.29246   0.42801   0.29889   1.000
    O74     O    0.42983   0.59974   0.28434   1.000
    O75     O    0.37647   0.51922   0.30179   1.000
    O76     O    0.92969   0.40031   0.28494   1.000
    O77     O    0.87621   0.48080   0.30238   1.000
    O78     O    0.49697   0.58563   0.32028   1.000
    O79     O    0.99702   0.41458   0.32069   1.000
    O80     O    0.72613   0.66991   0.33756   1.000
    O81     O    0.22691   0.33020   0.33730   1.000
    O82     O    0.31003   0.38483   0.34869   1.000
    O83     O    0.80911   0.61519   0.34927   1.000
    O84     O    0.19086   0.38484   0.65074   1.000
    O85     O    0.27384   0.33012   0.66244   1.000
    O86     O    0.68994   0.61520   0.65131   1.000
    O87     O    0.77306   0.66983   0.66270   1.000
    O88     O    0.00295   0.58545   0.67931   1.000
    O89     O    0.50300   0.41440   0.67972   1.000
    O90     O    0.12376   0.51923   0.69762   1.000
    O91     O    0.20700   0.42773   0.70091   1.000
    O92     O    0.62351   0.48082   0.69821   1.000
    O93     O    0.70751   0.57202   0.70111   1.000
    O94     O    0.79063   0.62665   0.71250   1.000
    O95     O    0.28998   0.37301   0.71262   1.000
    O96     O    0.07028   0.59972   0.71506   1.000
    O97     O    0.57014   0.40029   0.71566   1.000
    O98     O    0.79065   0.12657   0.78755   1.000
    O99     O    0.70758   0.07187   0.79918   1.000
    O100    O    0.29140   0.87463   0.78842   1.000
    O101    O    0.20820   0.92899   0.79993   1.000
    O102    O    0.57016   0.90027   0.78478   1.000
    O103    O    0.62351   0.98069   0.80211   1.000
    O104    O    0.07018   0.09965   0.78490   1.000
    O105    O    0.12341   0.01922   0.80241   1.000
    O106    O    0.00268   0.08549   0.82075   1.000
    O107    O    0.50327   0.91426   0.82124   1.000
    O108    O    0.77298   0.16976   0.83737   1.000
    O109    O    0.27204   0.83042   0.83734   1.000
    O110    O    0.68991   0.11506   0.84900   1.000
    O111    O    0.18884   0.88478   0.84884   1.000
    N112    N    0.24988   0.08276   0.00042   1.000
    O113    O    0.29164   0.03449   0.05635   1.000
    O114    O    0.20808   0.03442   0.94415   1.000
    N115    N    0.44568   0.19158   0.74689   1.000
    O116    O    0.51073   0.14558   0.77562   1.000
    O117    O    0.39308   0.24914   0.72465   1.000
    O118    O    0.47506   0.26809   0.73088   1.000
    N119    N    0.25019   0.58263   0.49974   1.000
    O120    O    0.29188   0.53432   0.44352   1.000
    O121    O    0.20851   0.53430   0.55598   1.000
    N122    N    0.75009   0.91727   0.00035   1.000
    O123    O    0.79189   0.96562   0.05624   1.000
    O124    O    0.70833   0.96554   0.94403   1.000
    N125    N    0.94574   0.80841   0.74623   1.000
    O126    O    0.01068   0.85439   0.77514   1.000
    O127    O    0.89312   0.75082   0.72415   1.000
    O128    O    0.97514   0.73190   0.73022   1.000
    N129    N    0.05423   0.19162   0.25377   1.000
    O130    O    0.10685   0.24922   0.27585   1.000
    O131    O    0.98930   0.14565   0.22486   1.000
    O132    O    0.02483   0.26813   0.26978   1.000
    N133    N    0.44524   0.69184   0.75381   1.000
    O134    O    0.39273   0.74956   0.77606   1.000
    O135    O    0.51038   0.64581   0.72501   1.000
    O136    O    0.47483   0.76824   0.76987   1.000
    N137    N    0.55429   0.80846   0.25312   1.000
    O138    O    0.48924   0.85445   0.22439   1.000
    O139    O    0.52491   0.73194   0.26913   1.000
    O140    O    0.60689   0.75089   0.27535   1.000
    N141    N    0.05410   0.69176   0.24660   1.000
    O142    O    0.98900   0.64579   0.27541   1.000
    O143    O    0.10680   0.74932   0.22438   1.000
    O144    O    0.02479   0.76822   0.23045   1.000
    N145    N    0.74977   0.41741   0.50025   1.000
    O146    O    0.79146   0.46573   0.44402   1.000
    O147    O    0.70809   0.46571   0.55648   1.000
    N148    N    0.94587   0.30827   0.75340   1.000
    O149    O    0.97518   0.23181   0.76955   1.000
    O150    O    0.01097   0.35424   0.72459   1.000
    O151    O    0.89317   0.25071   0.77562   1.000
    N152    N    0.55473   0.30819   0.24619   1.000
    O153    O    0.52514   0.23179   0.23013   1.000
    O154    O    0.60724   0.25047   0.22394   1.000
    O155    O    0.48959   0.35422   0.27499   1.000
loop_
    _geom_bond_atom_site_label_1
    _geom_bond_atom_site_label_2
    _geom_bond_distance
    _geom_bond_site_symmetry_2
    _ccdc_geom_bond_type
    Zr38   O56       1.23701      .   S
    Zr4    O56       1.23701      .   S
    Zr38   O57       0.63442      .   S
    Zr15   O57       0.63442      .   S
    Zr42   O58       1.23057      .   S
    Zr3    O58       1.23057      .   S
    Zr42   O59       0.63494      .   S
    Zr17   O59       0.63494      .   S
    Zr41   O60       0.63378      .   S
    Zr22   O60       0.63378      .   S
    Zr37   O61       0.63388  1_455   S
    Zr8    O61       0.63388      .   S
    Zr3    O62       1.16315  1_545   S
    Zr24   O62       1.16315      .   S
    Zr3    O63       1.19604      .   S
    Zr43   O63       1.19604      .   S
    Zr4    O64       1.16460  1_565   S
    Zr52   O64       1.16460      .   S
    Zr4    O65       1.19337      .   S
    Zr39   O65       1.19337      .   S
    Zr17   O66       0.63657      .   S
    Zr43   O66       0.63657      .   S
    Zr15   O67       0.63675      .   S
    Zr39   O67       0.63675      .   S
    Zr22   O68       0.64113      .   S
    Zr52   O68       0.64113      .   S
    Zr8    O69       0.64134      .   S
    Zr24   O69       0.64134      .   S
    Zr55   O70       0.63707      .   S
    Zr23   O70       0.63707      .   S
    Zr55   O71       1.18875      .   S
    Zr0    O71       1.18875      .   S
    Zr27   O72       0.63673      .   S
    Zr9    O72       0.63673      .   S
    Zr27   O73       1.19381      .   S
    Zr7    O73       1.19381      .   S
    Zr40   O74       0.64120      .   S
    Zr16   O74       0.64120      .   S
    Zr40   O75       1.16386      .   S
    Zr7    O75       1.16386      .   S
    Zr36   O76       0.64140      .   S
    Zr14   O76       0.64140      .   S
    Zr36   O77       1.16416      .   S
    Zr0    O77       1.16416      .   S
    Zr16   O78       0.63383      .   S
    Zr53   O78       0.63383      .   S
    Zr14   O79       0.63382      .   S
    Zr25   O79       0.63382  1_455   S
    Zr23   O80       0.63401      .   S
    Zr54   O80       0.63401      .   S
    Zr9    O81       0.63453      .   S
    Zr26   O81       0.63453      .   S
    Zr7    O82       1.23667      .   S
    Zr26   O82       1.23667      .   S
    Zr0    O83       1.24150      .   S
    Zr54   O83       1.24150      .   S
    Zr30   O84       1.24150      .   S
    Zr6    O84       1.24150      .   S
    Zr30   O85       0.63401      .   S
    Zr11   O85       0.63401      .   S
    Zr50   O86       1.23668      .   S
    Zr1    O86       1.23668      .   S
    Zr50   O87       0.63453      .   S
    Zr21   O87       0.63453      .   S
    Zr49   O88       0.63383  1_655   S
    Zr18   O88       0.63383      .   S
    Zr29   O89       0.63383      .   S
    Zr12   O89       0.63383      .   S
    Zr6    O90       1.16415      .   S
    Zr44   O90       1.16415      .   S
    Zr6    O91       1.18873      .   S
    Zr31   O91       1.18873      .   S
    Zr1    O92       1.16386      .   S
    Zr32   O92       1.16386      .   S
    Zr1    O93       1.19380      .   S
    Zr51   O93       1.19380      .   S
    Zr21   O94       0.63673      .   S
    Zr51   O94       0.63673      .   S
    Zr11   O95       0.63707      .   S
    Zr31   O95       0.63707      .   S
    Zr18   O96       0.64140      .   S
    Zr44   O96       0.64140      .   S
    Zr12   O97       0.64121      .   S
    Zr32   O97       0.64121      .   S
    Zr47   O98       0.63675      .   S
    Zr19   O98       0.63675      .   S
    Zr47   O99       1.19337      .   S
    Zr2    O99       1.19337      .   S
    Zr35   O100      0.63657      .   S
    Zr13   O100      0.63657      .   S
    Zr35   O101      1.19602      .   S
    Zr5    O101      1.19602      .   S
    Zr28   O102      0.64113      .   S
    Zr10   O102      0.64113      .   S
    Zr28   O103      1.16461      .   S
    Zr2    O103      1.16461  1_545   S
    Zr48   O104      0.64134      .   S
    Zr20   O104      0.64134      .   S
    Zr48   O105      1.16315      .   S
    Zr5    O105      1.16315  1_565   S
    Zr20   O106      0.63388      .   S
    Zr45   O106      0.63388  1_655   S
    Zr10   O107      0.63377      .   S
    Zr33   O107      0.63377      .   S
    Zr19   O108      0.63442      .   S
    Zr46   O108      0.63442      .   S
    Zr13   O109      0.63494      .   S
    Zr34   O109      0.63494      .   S
    Zr2    O110      1.23701      .   S
    Zr46   O110      1.23701      .   S
    Zr5    O111      1.23056      .   S
    Zr34   O111      1.23056      .   S
    N112   O113      1.35237      .   S
    Zr4    O113      2.56724  1_565   S
    N112   O114      1.35809  1_554   S
    Zr5    O114      2.57417  1_565   S
    N115   O116      1.20959      .   S
    Zr2    O116      2.36855      .   S
    N115   O117      1.16189      .   S
    Zr11   O117      1.90981      .   S
    N115   O118      1.21386      .   S
    Zr12   O118      1.96365      .   S
    N119   O120      1.35451      .   S
    Zr7    O120      2.56896      .   S
    N119   O121      1.35445      .   S
    Zr6    O121      2.56823      .   S
    N122   O123      1.35291      .   S
    Zr3    O123      2.56875  1_545   S
    N122   O124      1.35756  1_554   S
    Zr2    O124      2.57266  1_545   S
    N125   O126      1.20999  1_655   S
    Zr5    O126      2.37003      .   S
    N125   O127      1.16173      .   S
    Zr21   O127      1.90955      .   S
    N125   O128      1.21406      .   S
    Zr18   O128      1.96401  1_455   S
    N129   O130      1.16173      .   S
    Zr9    O130      1.90955      .   S
    N129   O131      1.20999  1_455   S
    Zr3    O131      2.37002      .   S
    N129   O132      1.21406      .   S
    Zr14   O132      1.96401  1_655   S
    N133   O134      1.16187      .   S
    Zr13   O134      1.90981      .   S
    N133   O135      1.20970      .   S
    Zr1    O135      2.36876      .   S
    N133   O136      1.21396      .   S
    Zr10   O136      1.96392      .   S
    N137   O138      1.20959      .   S
    Zr4    O138      2.36854      .   S
    N137   O139      1.21386      .   S
    Zr16   O139      1.96365      .   S
    N137   O140      1.16189      .   S
    Zr23   O140      1.90980      .   S
    N141   O142      1.20873  1_455   S
    Zr0    O142      2.36674      .   S
    N141   O143      1.16151      .   S
    Zr15   O143      1.90920      .   S
    N141   O144      1.21392      .   S
    Zr8    O144      1.96373  1_655   S
    N145   O146      1.35446      .   S
    Zr0    O146      2.56824      .   S
    N145   O147      1.35451      .   S
    Zr1    O147      2.56896      .   S
    N148   O149      1.21392      .   S
    Zr20   O149      1.96374  1_455   S
    N148   O150      1.20873  1_655   S
    Zr6    O150      2.36674      .   S
    N148   O151      1.16151      .   S
    Zr19   O151      1.90921      .   S
    N152   O153      1.21396      .   S
    Zr22   O153      1.96392      .   S
    N152   O154      1.16187      .   S
    Zr17   O154      1.90981      .   S
    N152   O155      1.20970      .   S
    Zr7    O155      2.36876      .   S
