# CIF file generated by openbabel 2.4.90, see http://openbabel.sf.net
data_I
_chemical_name_common ''
_cell_length_a 14.614
_cell_length_b 18.285
_cell_length_c 18.361
_cell_angle_alpha 112.518
_cell_angle_beta 105.626
_cell_angle_gamma 105.429
_space_group_name_H-M_alt 'P 1'
_space_group_name_Hall 'P 1'
loop_
    _symmetry_equiv_pos_as_xyz
    x,y,z
loop_
    _atom_site_label
    _atom_site_type_symbol
    _atom_site_fract_x
    _atom_site_fract_y
    _atom_site_fract_z
    _atom_site_occupancy
    H0      H    0.93612   0.71879   0.17911   1.000
    H1      H    0.84339   0.73589   0.05440   1.000
    H2      H    0.87081   0.67367   0.91793   1.000
    H3      H    0.99269   0.59693   0.91372   1.000
    H4      H    0.08105   0.58978   0.04501   1.000
    H5      H    0.75428   0.81672   0.53243   1.000
    H6      H    0.78899   0.93972   0.67406   1.000
    H7      H    0.95602   0.07481   0.74884   1.000
    H8      H    0.08244   0.07955   0.67730   1.000
    H9      H    0.03630   0.94960   0.53853   1.000
    H10     H    0.21845   0.46438   0.28069   1.000
    H11     H    0.11004   0.32338   0.26564   1.000
    H12     H    0.20088   0.24918   0.32983   1.000
    H13     H    0.39920   0.32076   0.40614   1.000
    H14     H    0.49334   0.45852   0.41119   1.000
    H15     H    0.06385   0.28126   0.82087   1.000
    H16     H    0.15659   0.26416   0.94559   1.000
    H17     H    0.12916   0.32638   0.08205   1.000
    H18     H    0.00728   0.40311   0.08626   1.000
    H19     H    0.91892   0.41026   0.95496   1.000
    H20     H    0.24569   0.18333   0.46754   1.000
    H21     H    0.21098   0.06032   0.32591   1.000
    H22     H    0.04395   0.92524   0.25113   1.000
    H23     H    0.91752   0.92050   0.32267   1.000
    H24     H    0.96366   0.05045   0.46143   1.000
    H25     H    0.78153   0.53567   0.71928   1.000
    H26     H    0.88993   0.67667   0.73433   1.000
    H27     H    0.79910   0.75087   0.67015   1.000
    H28     H    0.60077   0.67929   0.59383   1.000
    H29     H    0.50664   0.54152   0.58878   1.000
    C30     C    0.94713   0.69433   0.11930   1.000
    C31     C    0.89565   0.70320   0.04951   1.000
    C32     C    0.91104   0.66841   0.97387   1.000
    C33     C    0.97789   0.62636   0.97086   1.000
    C34     C    0.02726   0.62109   0.04386   1.000
    C35     C    0.82640   0.87588   0.56795   1.000
    C36     C    0.84630   0.94470   0.64655   1.000
    C37     C    0.93907   0.01958   0.68770   1.000
    C38     C    0.00912   0.02283   0.64909   1.000
    C39     C    0.98379   0.95075   0.57083   1.000
    C40     C    0.25451   0.42906   0.30598   1.000
    C41     C    0.19492   0.35083   0.29824   1.000
    C42     C    0.24576   0.30999   0.33410   1.000
    C43     C    0.35452   0.34856   0.37596   1.000
    C44     C    0.40838   0.42640   0.38005   1.000
    C45     C    0.05284   0.30572   0.88068   1.000
    C46     C    0.10433   0.29685   0.95047   1.000
    C47     C    0.08894   0.33164   0.02611   1.000
    C48     C    0.02208   0.37368   0.02911   1.000
    C49     C    0.97271   0.37896   0.95611   1.000
    C50     C    0.17356   0.12417   0.43202   1.000
    C51     C    0.15367   0.05534   0.35342   1.000
    C52     C    0.06089   0.98046   0.31228   1.000
    C53     C    0.99084   0.97722   0.35088   1.000
    C54     C    0.01617   0.04930   0.42913   1.000
    C55     C    0.74547   0.57098   0.69399   1.000
    C56     C    0.80505   0.64922   0.70173   1.000
    C57     C    0.75422   0.69006   0.66588   1.000
    C58     C    0.64545   0.65149   0.62401   1.000
    C59     C    0.59160   0.57364   0.61992   1.000
    N60     N    0.01240   0.65421   0.11699   1.000
    N61     N    0.89405   0.87840   0.53044   1.000
    N62     N    0.35977   0.46647   0.34597   1.000
    N63     N    0.98758   0.34583   0.88298   1.000
    N64     N    0.10592   0.12165   0.46953   1.000
    N65     N    0.64021   0.53357   0.65399   1.000
loop_
    _geom_bond_atom_site_label_1
    _geom_bond_atom_site_label_2
    _geom_bond_distance
    _geom_bond_site_symmetry_2
    _ccdc_geom_bond_type
    C47    C48       1.39457      .   S
    C47    H17       1.09105      .   S
    C47    C46       1.39701  1_554   S
    C48    H18       1.09031      .   S
    C48    C49       1.39335  1_454   S
    C34    H4        1.08894      .   S
    C34    N60       1.34955      .   S
    C34    C33       1.39336  1_454   S
    C31    H1        1.08975      .   S
    C31    C30       1.39251      .   S
    C31    C32       1.39698  1_554   S
    N60    C30       1.34904  1_455   S
    C30    H0        1.09054      .   S
    H22    C52       1.09102      .   S
    H11    C41       1.08976      .   S
    H10    C40       1.09056      .   S
    C41    C40       1.39265      .   S
    C41    C42       1.39685      .   S
    C40    N62       1.34917      .   S
    C52    C53       1.39450  1_455   S
    C52    C51       1.39707  1_565   S
    H23    C53       1.09101      .   S
    H21    C51       1.08977      .   S
    H12    C42       1.09107      .   S
    C42    C43       1.39459      .   S
    N62    C44       1.34957      .   S
    C53    C54       1.39363  1_665   S
    C51    C50       1.39258      .   S
    C43    C44       1.39342      .   S
    C43    H13       1.09043      .   S
    C44    H14       1.08890      .   S
    C54    H24       1.08866  1_455   S
    C54    N64       1.34968      .   S
    C50    H20       1.09048      .   S
    C50    N64       1.34919      .   S
    N61    C35       1.34919      .   S
    N61    C39       1.34968      .   S
    H5     C35       1.09048      .   S
    H9     C39       1.08866  1_455   S
    C35    C36       1.39257      .   S
    C39    C38       1.39363  1_665   S
    H29    C59       1.08890      .   S
    H28    C58       1.09044      .   S
    C59    C58       1.39342      .   S
    C59    N65       1.34957      .   S
    C58    C57       1.39459      .   S
    C36    H6        1.08977      .   S
    C36    C37       1.39707  1_565   S
    C38    H8        1.09099      .   S
    C38    C37       1.39452  1_455   S
    N65    C55       1.34916      .   S
    C57    H27       1.09108      .   S
    C57    C56       1.39683      .   S
    C37    H7        1.09100      .   S
    C55    C56       1.39263      .   S
    C55    H25       1.09056      .   S
    C56    H26       1.08977      .   S
    H15    C45       1.09055      .   S
    C45    N63       1.34904  1_455   S
    C45    C46       1.39248      .   S
    N63    C49       1.34957      .   S
    H3     C33       1.09033      .   S
    H2     C32       1.09104      .   S
    H16    C46       1.08975      .   S
    H19    C49       1.08892      .   S
    C33    C32       1.39457      .   S
