# CIF file generated by openbabel 2.4.90, see http://openbabel.sf.net
data_I
_chemical_name_common ''
_cell_length_a 14.614
_cell_length_b 18.285
_cell_length_c 18.361
_cell_angle_alpha 112.518
_cell_angle_beta 105.626
_cell_angle_gamma 105.429
_space_group_name_H-M_alt 'P 1'
_space_group_name_Hall 'P 1'
loop_
    _symmetry_equiv_pos_as_xyz
    x,y,z
loop_
    _atom_site_label
    _atom_site_type_symbol
    _atom_site_fract_x
    _atom_site_fract_y
    _atom_site_fract_z
    _atom_site_occupancy
    Cd0     Cd   0.85391   0.76158   0.39133   1.000
    Cd1     Cd   0.46053   0.60617   0.36660   1.000
    Cd2     Cd   0.90765   0.36756   0.76501   1.000
    Cd3     Cd   0.14607   0.23847   0.60865   1.000
    Cd4     Cd   0.53945   0.39388   0.63338   1.000
    Cd5     Cd   0.09232   0.63249   0.23497   1.000
    C6      C    0.06109   0.78665   0.37303   1.000
    C7      C    0.53964   0.24970   0.47443   1.000
    C8      C    0.68524   0.62343   0.41025   1.000
    O9      O    0.15062   0.58157   0.79153   1.000
    O10     O    0.29871   0.60966   0.28931   1.000
    O11     O    0.19793   0.59604   0.16393   1.000
    O12     O    0.22366   0.17480   0.67686   1.000
    C13     C    0.06592   0.52807   0.77757   1.000
    C14     C    0.27425   0.58971   0.21069   1.000
    C15     C    0.29287   0.22601   0.75592   1.000
    C16     C    0.93888   0.21340   0.62695   1.000
    C17     C    0.46033   0.75034   0.52554   1.000
    C18     C    0.31474   0.37662   0.58973   1.000
    C19     C    0.93405   0.47198   0.22241   1.000
    C20     C    0.72572   0.41033   0.78929   1.000
    C21     C    0.70710   0.77404   0.24406   1.000
    O22     O    0.00658   0.70874   0.31356   1.000
    O23     O    0.03123   0.83208   0.42583   1.000
    O24     O    0.54941   0.32906   0.50290   1.000
    O25     O    0.57238   0.21166   0.42214   1.000
    O26     O    0.68963   0.68261   0.39011   1.000
    O27     O    0.60276   0.57065   0.40418   1.000
    O28     O    0.04740   0.49932   0.82865   1.000
    O29     O    0.36454   0.21268   0.79553   1.000
    O30     O    0.99339   0.29131   0.68642   1.000
    O31     O    0.96875   0.16797   0.57415   1.000
    O32     O    0.45057   0.67098   0.49707   1.000
    O33     O    0.42761   0.78839   0.57784   1.000
    O34     O    0.31034   0.31743   0.60986   1.000
    O35     O    0.39722   0.42939   0.59579   1.000
    O36     O    0.95256   0.50074   0.17133   1.000
    O37     O    0.84934   0.41849   0.20846   1.000
    O38     O    0.70126   0.39039   0.71066   1.000
    O39     O    0.80205   0.40401   0.83605   1.000
    O40     O    0.77631   0.82525   0.32311   1.000
    O41     O    0.63543   0.78737   0.20445   1.000
    Ts42    Ts   0.85975   0.72841   0.40893   1.000
    Ts43    Ts   0.86729   0.80052   0.43770   1.000
    Ts44    Ts   0.82530   0.72756   0.34112   1.000
    Ts45    Ts   0.44909   0.58916   0.31653   1.000
    Ts46    Ts   0.42694   0.55960   0.35972   1.000
    Ts47    Ts   0.48258   0.65699   0.38346   1.000
    Ts48    Ts   0.90235   0.38437   0.73091   1.000
    Ts49    Ts   0.86879   0.31732   0.73174   1.000
    Ts50    Ts   0.93429   0.36031   0.80433   1.000
    Ts51    Ts   0.17467   0.27249   0.65885   1.000
    Ts52    Ts   0.14022   0.27164   0.59105   1.000
    Ts53    Ts   0.13268   0.19953   0.56227   1.000
    Ts54    Ts   0.51739   0.34305   0.61651   1.000
    Ts55    Ts   0.55089   0.41089   0.68345   1.000
    Ts56    Ts   0.57303   0.44044   0.64025   1.000
    Ts57    Ts   0.13118   0.68273   0.26823   1.000
    Ts58    Ts   0.06568   0.63973   0.19564   1.000
    Ts59    Ts   0.09763   0.61567   0.26906   1.000
    Og60    Og   0.09765   0.80182   0.37640   1.000
    Og61    Og   0.52032   0.23227   0.48585   1.000
    Og62    Og   0.71859   0.62025   0.42224   1.000
    Og63    Og   0.03522   0.51623   0.74877   1.000
    Og64    Og   0.29561   0.57770   0.19586   1.000
    Og65    Og   0.29041   0.25456   0.77244   1.000
    Og66    Og   0.90232   0.19823   0.62358   1.000
    Og67    Og   0.47965   0.76778   0.51412   1.000
    Og68    Og   0.28139   0.37980   0.57774   1.000
    Og69    Og   0.96475   0.48382   0.25121   1.000
    Og70    Og   0.70436   0.42235   0.80412   1.000
    Og71    Og   0.70956   0.74548   0.22754   1.000
loop_
    _geom_bond_atom_site_label_1
    _geom_bond_atom_site_label_2
    _geom_bond_distance
    _geom_bond_site_symmetry_2
    _ccdc_geom_bond_type
    O11    C14       1.27412      .   S
    O11    Cd5       2.34375      .   S
    O36    C19       1.29163      .   S
    O36    Cd5       2.29801  1_655   S
    O41    C21       1.24354      .   S
    O37    C19       1.24399      .   S
    C14    O10       1.26267      .   S
    Cd5    O22       2.44104      .   S
    C21    O40       1.29261      .   S
    O10    Cd1       2.43959      .   S
    O22    C6        1.26191      .   S
    O40    Cd0       2.29440      .   S
    Cd1    O27       2.34675      .   S
    Cd1    O32       2.29561      .   S
    C6     O23       1.27452      .   S
    O26    Cd0       2.43950      .   S
    O26    C8        1.26258      .   S
    Cd0    O23       2.34329  1_655   S
    O27    C8        1.27401      .   S
    O25    C7        1.24397      .   S
    C7     O24       1.29156      .   S
    O32    C17       1.29155      .   S
    O24    Cd4       2.29560      .   S
    C17    O33       1.24397      .   S
    O31    Cd3       2.34329  1_655   S
    O31    C16       1.27451      .   S
    C18    O35       1.27401      .   S
    C18    O34       1.26256      .   S
    O35    Cd4       2.34672      .   S
    Cd3    O34       2.43947      .   S
    Cd3    O12       2.29438      .   S
    C16    O30       1.26191      .   S
    Cd4    O38       2.43959      .   S
    O12    C15       1.29262      .   S
    O30    Cd2       2.44100      .   S
    O38    C20       1.26267      .   S
    C15    O29       1.24354      .   S
    Cd2    O28       2.29802  1_655   S
    Cd2    O39       2.34376      .   S
    C13    O9        1.24398      .   S
    C13    O28       1.29162      .   S
    C20    O39       1.27412      .   S
    Cd0    Ts42      0.80152      .   S
    Cd0    Ts43      0.80126      .   S
    Cd0    Ts44      0.79139      .   S
    Cd1    Ts45      0.80022      .   S
    Cd1    Ts46      0.80234      .   S
    Cd1    Ts47      0.79358      .   S
    Cd2    Ts48      0.79158      .   S
    Cd2    Ts49      0.80324      .   S
    Cd2    Ts50      0.79980      .   S
    Cd3    Ts51      0.79139      .   S
    Cd3    Ts52      0.80153      .   S
    Cd3    Ts53      0.80127      .   S
    Cd4    Ts54      0.79359      .   S
    Cd4    Ts55      0.80024      .   S
    Cd4    Ts56      0.80235      .   S
    Cd5    Ts57      0.80324      .   S
    Cd5    Ts58      0.79979      .   S
    Cd5    Ts59      0.79157      .   S
    C6     Og60      0.50634      .   S
    C7     Og61      0.51042      .   S
    C8     Og62      0.50638      .   S
    C13    Og63      0.51047      .   S
    C14    Og64      0.50627      .   S
    C15    Og65      0.51038      .   S
    C16    Og66      0.50634      .   S
    C17    Og67      0.51042      .   S
    C18    Og68      0.50638      .   S
    C19    Og69      0.51047      .   S
    C20    Og70      0.50628      .   S
    C21    Og71      0.51038      .   S
