# CIF file generated by openbabel 2.4.90, see http://openbabel.sf.net
data_I
_chemical_name_common ''
_cell_length_a 14.614
_cell_length_b 18.285
_cell_length_c 18.361
_cell_angle_alpha 112.518
_cell_angle_beta 105.626
_cell_angle_gamma 105.429
_space_group_name_H-M_alt 'P 1'
_space_group_name_Hall 'P 1'
loop_
    _symmetry_equiv_pos_as_xyz
    x,y,z
loop_
    _atom_site_label
    _atom_site_type_symbol
    _atom_site_fract_x
    _atom_site_fract_y
    _atom_site_fract_z
    _atom_site_occupancy
    Zr0     Zr   0.09232   0.63249   0.23497   1.000
    Zr1     Zr   0.85391   0.76158   0.39133   1.000
    Zr2     Zr   0.46053   0.60617   0.36660   1.000
    Zr3     Zr   0.90765   0.36756   0.76501   1.000
    Zr4     Zr   0.14607   0.23847   0.60865   1.000
    Zr5     Zr   0.53945   0.39388   0.63338   1.000
    N6      N    0.34030   0.45656   0.98827   1.000
    O7      O    0.39183   0.51860   0.13988   1.000
    O8      O    0.26464   0.37303   0.83611   1.000
    N9      N    0.11560   0.46833   0.45532   1.000
    O10     O    0.12645   0.37828   0.51879   1.000
    O11     O    0.10794   0.53779   0.37072   1.000
    N12     N    0.88438   0.53172   0.54465   1.000
    O13     O    0.87352   0.62177   0.48119   1.000
    O14     O    0.89203   0.46225   0.62926   1.000
    N15     N    0.64788   0.98852   0.53282   1.000
    O16     O    0.57074   0.83546   0.46236   1.000
    O17     O    0.74862   0.14036   0.62396   1.000
    N18     N    0.35209   0.01152   0.46716   1.000
    O19     O    0.25135   0.85968   0.37601   1.000
    O20     O    0.42923   0.16458   0.53762   1.000
    N21     N    0.65967   0.54349   0.01170   1.000
    O22     O    0.73533   0.62702   0.16386   1.000
    O23     O    0.60814   0.48145   0.86009   1.000
    C24     C    0.29369   0.20450   0.74277   1.000
    O25     O    0.30422   0.28360   0.81363   1.000
    O26     O    0.23928   0.20556   0.69276   1.000
    C27     C    0.96701   0.22422   0.62917   1.000
    O28     O    0.01221   0.21372   0.61028   1.000
    O29     O    0.86648   0.15690   0.60326   1.000
    O30     O    0.95876   0.27683   0.67744   1.000
    C31     C    0.74301   0.40158   0.77867   1.000
    O32     O    0.79893   0.39368   0.78960   1.000
    O33     O    0.70984   0.44375   0.84514   1.000
    O34     O    0.68168   0.39685   0.72534   1.000
    C35     C    0.34077   0.37448   0.59846   1.000
    O36     O    0.40455   0.39306   0.60652   1.000
    O37     O    0.28449   0.32622   0.60386   1.000
    O38     O    0.26546   0.39967   0.55600   1.000
    C39     C    0.55381   0.26347   0.46649   1.000
    O40     O    0.54912   0.31247   0.51732   1.000
    O41     O    0.49259   0.19050   0.47293   1.000
    C42     C    0.08798   0.53632   0.79925   1.000
    O43     O    0.03275   0.48488   0.79804   1.000
    O44     O    0.02005   0.52867   0.71938   1.000
    C45     C    0.44617   0.73657   0.53349   1.000
    O46     O    0.50738   0.80954   0.52705   1.000
    O47     O    0.45086   0.68757   0.48266   1.000
    C48     C    0.65921   0.62556   0.40152   1.000
    O49     O    0.59542   0.60699   0.39345   1.000
    O50     O    0.71549   0.67383   0.39612   1.000
    O51     O    0.73451   0.60038   0.44398   1.000
    C52     C    0.25696   0.59847   0.22131   1.000
    O53     O    0.29013   0.55630   0.15483   1.000
    O54     O    0.20104   0.60637   0.21038   1.000
    O55     O    0.31829   0.60319   0.27463   1.000
    C56     C    0.91198   0.46374   0.20073   1.000
    O57     O    0.96721   0.51518   0.20194   1.000
    O58     O    0.97991   0.47138   0.28060   1.000
    C59     C    0.03296   0.77582   0.37081   1.000
    O60     O    0.98776   0.78633   0.38969   1.000
    O61     O    0.04121   0.72322   0.32253   1.000
    O62     O    0.13349   0.84314   0.39671   1.000
    C63     C    0.70628   0.79555   0.25721   1.000
    O64     O    0.76070   0.79448   0.30721   1.000
    O65     O    0.69576   0.71645   0.18635   1.000
loop_
    _geom_bond_atom_site_label_1
    _geom_bond_atom_site_label_2
    _geom_bond_distance
    _geom_bond_site_symmetry_2
    _ccdc_geom_bond_type
    N6     O7        2.36649  1_556   S
    Zr2    O7        3.56200      .   S
    N6     O8        2.35150      .   S
    Zr4    O8        3.53011      .   S
    N9     O10       2.36708      .   S
    Zr4    O10       3.56449      .   S
    N9     O11       2.35208      .   S
    Zr0    O11       3.53163      .   S
    N12    O13       2.36708      .   S
    Zr1    O13       3.56448      .   S
    N12    O14       2.35209      .   S
    Zr3    O14       3.53165      .   S
    N15    O16       2.35363      .   S
    Zr2    O16       3.53534      .   S
    N15    O17       2.36967  1_565   S
    Zr3    O17       3.57013      .   S
    N18    O19       2.36966  1_545   S
    Zr0    O19       3.57013      .   S
    N18    O20       2.35364      .   S
    Zr5    O20       3.53536      .   S
    N21    O22       2.35149      .   S
    Zr1    O22       3.53010      .   S
    N21    O23       2.36651  1_554   S
    Zr5    O23       3.56204      .   S
    C24    O25       1.46315      .   S
    N6     O25       3.31612      .   S
    C24    O26       1.05094      .   S
    Zr4    O26       2.14879      .   S
    C27    O28       0.85637  1_655   S
    Zr4    O28       1.89832      .   S
    C27    O29       1.45343      .   S
    N15    O29       3.29371  1_565   S
    C27    O30       1.09152      .   S
    Zr3    O30       2.27121      .   S
    C31    O32       0.85182      .   S
    Zr3    O32       1.89250      .   S
    C31    O33       1.45467      .   S
    N21    O33       3.29604  1_554   S
    C31    O34       1.09116      .   S
    Zr5    O34       2.27011      .   S
    C35    O36       0.85138      .   S
    Zr5    O36       1.89334      .   S
    C35    O37       1.09079      .   S
    Zr4    O37       2.26958      .   S
    C35    O38       1.45382      .   S
    N9     O38       3.29377      .   S
    C39    O40       1.05117      .   S
    Zr5    O40       2.14972      .   S
    C39    O41       1.46186      .   S
    N18    O41       3.31353      .   S
    C42    O43       1.05216      .   S
    Zr3    O43       2.15213  1_655   S
    C42    O44       1.46297      .   S
    N12    O44       3.31603  1_655   S
    C45    O46       1.46186      .   S
    N15    O46       3.31353      .   S
    C45    O47       1.05117      .   S
    Zr2    O47       2.14973      .   S
    C48    O49       0.85136      .   S
    Zr2    O49       1.89334      .   S
    C48    O50       1.09079      .   S
    Zr1    O50       2.26960      .   S
    C48    O51       1.45381      .   S
    N12    O51       3.29374      .   S
    C52    O53       1.45466      .   S
    N6     O53       3.29603  1_556   S
    C52    O54       0.85183      .   S
    Zr0    O54       1.89252      .   S
    C52    O55       1.09116      .   S
    Zr2    O55       2.27011      .   S
    C56    O57       1.05216      .   S
    Zr0    O57       2.15211  1_455   S
    C56    O58       1.46298      .   S
    N9     O58       3.31604  1_455   S
    C59    O60       0.85636  1_455   S
    Zr1    O60       1.89831      .   S
    C59    O61       1.09152      .   S
    Zr0    O61       2.27123      .   S
    C59    O62       1.45342      .   S
    N18    O62       3.29370  1_545   S
    C63    O64       1.05094      .   S
    Zr1    O64       2.14879      .   S
    C63    O65       1.46314      .   S
    N21    O65       3.31612      .   S
