# CIF file generated by openbabel 2.4.90, see http://openbabel.sf.net
data_I
_chemical_name_common ''
_cell_length_a 14.614
_cell_length_b 18.285
_cell_length_c 18.361
_cell_angle_alpha 112.518
_cell_angle_beta 105.626
_cell_angle_gamma 105.429
_space_group_name_H-M_alt 'P 1'
_space_group_name_Hall 'P 1'
loop_
    _symmetry_equiv_pos_as_xyz
    x,y,z
loop_
    _atom_site_label
    _atom_site_type_symbol
    _atom_site_fract_x
    _atom_site_fract_y
    _atom_site_fract_z
    _atom_site_occupancy
    Zr0     Zr   0.09232   0.63249   0.23497   1.000
    Zr1     Zr   0.85391   0.76158   0.39133   1.000
    Zr2     Zr   0.46053   0.60617   0.36660   1.000
    Zr3     Zr   0.90765   0.36756   0.76501   1.000
    Zr4     Zr   0.14607   0.23847   0.60865   1.000
    Zr5     Zr   0.53945   0.39388   0.63338   1.000
    Zr6     Zr   0.06109   0.78665   0.37303   1.000
    Zr7     Zr   0.53964   0.24970   0.47443   1.000
    Zr8     Zr   0.68524   0.62343   0.41025   1.000
    Zr9     Zr   0.06592   0.52807   0.77757   1.000
    Zr10    Zr   0.27425   0.58971   0.21069   1.000
    Zr11    Zr   0.29287   0.22601   0.75592   1.000
    Zr12    Zr   0.93888   0.21340   0.62695   1.000
    Zr13    Zr   0.46033   0.75034   0.52554   1.000
    Zr14    Zr   0.31474   0.37662   0.58973   1.000
    Zr15    Zr   0.93405   0.47198   0.22241   1.000
    Zr16    Zr   0.72572   0.41033   0.78929   1.000
    Zr17    Zr   0.70710   0.77404   0.24406   1.000
    Zr18    Zr   0.00658   0.70874   0.31356   1.000
    Zr19    Zr   0.03123   0.83208   0.42583   1.000
    Zr20    Zr   0.54941   0.32906   0.50290   1.000
    Zr21    Zr   0.57238   0.21166   0.42214   1.000
    Zr22    Zr   0.68963   0.68261   0.39011   1.000
    Zr23    Zr   0.60276   0.57065   0.40418   1.000
    Zr24    Zr   0.04740   0.49932   0.82865   1.000
    Zr25    Zr   0.15062   0.58157   0.79153   1.000
    Zr26    Zr   0.29871   0.60966   0.28931   1.000
    Zr27    Zr   0.19793   0.59604   0.16393   1.000
    Zr28    Zr   0.22366   0.17480   0.67686   1.000
    Zr29    Zr   0.36454   0.21268   0.79553   1.000
    Zr30    Zr   0.99339   0.29131   0.68642   1.000
    Zr31    Zr   0.96875   0.16797   0.57415   1.000
    Zr32    Zr   0.45057   0.67098   0.49707   1.000
    Zr33    Zr   0.42761   0.78839   0.57784   1.000
    Zr34    Zr   0.31034   0.31743   0.60986   1.000
    Zr35    Zr   0.39722   0.42939   0.59579   1.000
    Zr36    Zr   0.95256   0.50074   0.17133   1.000
    Zr37    Zr   0.84934   0.41849   0.20846   1.000
    Zr38    Zr   0.70126   0.39039   0.71066   1.000
    Zr39    Zr   0.80205   0.40401   0.83605   1.000
    Zr40    Zr   0.77631   0.82525   0.32311   1.000
    Zr41    Zr   0.63543   0.78737   0.20445   1.000
    O42     O    0.23609   0.59288   0.18731   1.000
    O43     O    0.14512   0.61426   0.19945   1.000
    O44     O    0.94330   0.48636   0.19687   1.000
    O45     O    0.02244   0.56661   0.20315   1.000
    O46     O    0.67127   0.78071   0.22426   1.000
    O47     O    0.89169   0.44524   0.21544   1.000
    O48     O    0.28648   0.59969   0.25000   1.000
    O49     O    0.04945   0.67061   0.27426   1.000
    O50     O    0.74171   0.79965   0.28359   1.000
    O51     O    0.37962   0.60791   0.32795   1.000
    O52     O    0.03383   0.74769   0.34329   1.000
    O53     O    0.81511   0.79341   0.35722   1.000
    O54     O    0.53164   0.58841   0.38539   1.000
    O55     O    0.45555   0.63857   0.43183   1.000
    O56     O    0.04616   0.80936   0.39943   1.000
    O57     O    0.77177   0.72209   0.39072   1.000
    O58     O    0.68743   0.65302   0.40018   1.000
    O59     O    0.94257   0.79683   0.40858   1.000
    O60     O    0.64400   0.59704   0.40722   1.000
    O61     O    0.55601   0.23068   0.44829   1.000
    O62     O    0.54452   0.28938   0.48867   1.000
    O63     O    0.45545   0.71066   0.51131   1.000
    O64     O    0.54443   0.36147   0.56814   1.000
    O65     O    0.44397   0.76936   0.55169   1.000
    O66     O    0.05741   0.20322   0.59140   1.000
    O67     O    0.95381   0.19068   0.60055   1.000
    O68     O    0.35598   0.40301   0.59276   1.000
    O69     O    0.31254   0.34703   0.59980   1.000
    O70     O    0.46833   0.41163   0.61458   1.000
    O71     O    0.22820   0.27795   0.60925   1.000
    O72     O    0.18486   0.20663   0.64275   1.000
    O73     O    0.96614   0.25235   0.65668   1.000
    O74     O    0.62035   0.39213   0.67202   1.000
    O75     O    0.25826   0.20040   0.71639   1.000
    O76     O    0.95052   0.32943   0.72571   1.000
    O77     O    0.71349   0.40036   0.74998   1.000
    O78     O    0.32870   0.21934   0.77572   1.000
    O79     O    0.97752   0.43344   0.79683   1.000
    O80     O    0.85485   0.38578   0.80053   1.000
    O81     O    0.10827   0.55482   0.78455   1.000
    O82     O    0.05666   0.51370   0.80311   1.000
    O83     O    0.76388   0.40717   0.81267   1.000
    N84     N    0.34030   0.45656   0.98827   1.000
    O85     O    0.32330   0.51413   0.08836   1.000
    O86     O    0.31474   0.36270   0.88449   1.000
    O87     O    0.39183   0.51860   0.13988   1.000
    O88     O    0.26464   0.37303   0.83611   1.000
    N89     N    0.11560   0.46833   0.45532   1.000
    O90     O    0.04785   0.47903   0.36046   1.000
    O91     O    0.19016   0.42486   0.51353   1.000
    O92     O    0.12645   0.37828   0.51879   1.000
    O93     O    0.10794   0.53779   0.37072   1.000
    N94     N    0.88438   0.53172   0.54465   1.000
    O95     O    0.80982   0.57519   0.48644   1.000
    O96     O    0.87352   0.62177   0.48119   1.000
    O97     O    0.95212   0.52102   0.63951   1.000
    O98     O    0.89203   0.46225   0.62926   1.000
    N99     N    0.91971   0.95932   0.62034   1.000
    O100    O    0.89684   0.88966   0.54061   1.000
    N101    N    0.95413   0.66206   0.03496   1.000
    O102    O    0.00324   0.65271   0.10547   1.000
    N103    N    0.64788   0.98852   0.53282   1.000
    O104    O    0.57074   0.83546   0.46236   1.000
    O105    O    0.76596   0.08958   0.57735   1.000
    O106    O    0.56859   0.88251   0.52061   1.000
    O107    O    0.74862   0.14036   0.62396   1.000
    N108    N    0.29452   0.37705   0.33944   1.000
    O109    O    0.35234   0.45669   0.34786   1.000
    N110    N    0.70545   0.62300   0.66054   1.000
    O111    O    0.64764   0.54336   0.65211   1.000
    N112    N    0.04584   0.33799   0.96502   1.000
    O113    O    0.99673   0.34734   0.89451   1.000
    N114    N    0.08026   0.04073   0.37963   1.000
    O115    O    0.10313   0.11039   0.45936   1.000
    N116    N    0.35209   0.01152   0.46716   1.000
    O117    O    0.25135   0.85968   0.37601   1.000
    O118    O    0.42923   0.16458   0.53762   1.000
    O119    O    0.43138   0.11753   0.47936   1.000
    O120    O    0.23401   0.91046   0.42262   1.000
    N121    N    0.65967   0.54349   0.01170   1.000
    O122    O    0.68523   0.63735   0.11549   1.000
    O123    O    0.73533   0.62702   0.16386   1.000
    O124    O    0.60814   0.48145   0.86009   1.000
    O125    O    0.67667   0.48592   0.91162   1.000
loop_
    _geom_bond_atom_site_label_1
    _geom_bond_atom_site_label_2
    _geom_bond_distance
    _geom_bond_site_symmetry_2
    _ccdc_geom_bond_type
    Zr27   O42       0.63706      .   S
    Zr10   O42       0.63706      .   S
    Zr27   O43       1.17188      .   S
    Zr0    O43       1.17188      .   S
    Zr36   O44       0.64582      .   S
    Zr15   O44       0.64582      .   S
    Zr36   O45       1.14900  1_655   S
    Zr0    O45       1.14900      .   S
    Zr41   O46       0.62177      .   S
    Zr17   O46       0.62177      .   S
    Zr37   O47       0.62199      .   S
    Zr15   O47       0.62199      .   S
    Zr10   O48       0.63133      .   S
    Zr26   O48       0.63133      .   S
    Zr0    O49       1.22052      .   S
    Zr18   O49       1.22052      .   S
    Zr17   O50       0.64630      .   S
    Zr40   O50       0.64630      .   S
    Zr26   O51       1.21979      .   S
    Zr2    O51       1.21979      .   S
    Zr18   O52       0.63095      .   S
    Zr6    O52       0.63095      .   S
    Zr40   O53       1.14720      .   S
    Zr1    O53       1.14720      .   S
    Zr2    O54       1.17338      .   S
    Zr23   O54       1.17338      .   S
    Zr2    O55       1.14780      .   S
    Zr32   O55       1.14780      .   S
    Zr6    O56       0.63726      .   S
    Zr19   O56       0.63726      .   S
    Zr22   O57       1.21975      .   S
    Zr1    O57       1.21975      .   S
    Zr22   O58       0.63129      .   S
    Zr8    O58       0.63129      .   S
    Zr1    O59       1.17164      .   S
    Zr19   O59       1.17164  1_455   S
    Zr23   O60       0.63701      .   S
    Zr8    O60       0.63701      .   S
    Zr21   O61       0.62198      .   S
    Zr7    O61       0.62198      .   S
    Zr7    O62       0.64578      .   S
    Zr20   O62       0.64578      .   S
    Zr32   O63       0.64578      .   S
    Zr13   O63       0.64578      .   S
    Zr20   O64       1.14780      .   S
    Zr5    O64       1.14780      .   S
    Zr13   O65       0.62198      .   S
    Zr33   O65       0.62198      .   S
    Zr31   O66       1.17164  1_655   S
    Zr4    O66       1.17164      .   S
    Zr31   O67       0.63725      .   S
    Zr12   O67       0.63725      .   S
    Zr14   O68       0.63701      .   S
    Zr35   O68       0.63701      .   S
    Zr14   O69       0.63128      .   S
    Zr34   O69       0.63128      .   S
    Zr35   O70       1.17336      .   S
    Zr5    O70       1.17336      .   S
    Zr4    O71       1.21974      .   S
    Zr34   O71       1.21974      .   S
    Zr4    O72       1.14719      .   S
    Zr28   O72       1.14719      .   S
    Zr12   O73       0.63095      .   S
    Zr30   O73       0.63095      .   S
    Zr5    O74       1.21979      .   S
    Zr38   O74       1.21979      .   S
    Zr28   O75       0.64631      .   S
    Zr11   O75       0.64631      .   S
    Zr30   O76       1.22050      .   S
    Zr3    O76       1.22050      .   S
    Zr38   O77       0.63134      .   S
    Zr16   O77       0.63134      .   S
    Zr11   O78       0.62177      .   S
    Zr29   O78       0.62177      .   S
    Zr3    O79       1.14901      .   S
    Zr24   O79       1.14901  1_455   S
    Zr3    O80       1.17188      .   S
    Zr39   O80       1.17188      .   S
    Zr9    O81       0.62199      .   S
    Zr25   O81       0.62199      .   S
    Zr9    O82       0.64581      .   S
    Zr24   O82       0.64581      .   S
    Zr16   O83       0.63706      .   S
    Zr39   O83       0.63706      .   S
    N84    O85       1.85750  1_556   S
    Zr10   O85       2.54667      .   S
    N84    O86       1.86731      .   S
    Zr11   O86       2.56340      .   S
    N84    O87       2.36649  1_556   S
    Zr2    O87       3.56200      .   S
    N84    O88       2.35150      .   S
    Zr4    O88       3.53011      .   S
    N89    O90       1.86743      .   S
    Zr15   O90       2.56360  1_655   S
    N89    O91       1.85621      .   S
    Zr14   O91       2.54507      .   S
    N89    O92       2.36708      .   S
    Zr4    O92       3.56449      .   S
    N89    O93       2.35208      .   S
    Zr0    O93       3.53163      .   S
    N94    O95       1.85619      .   S
    Zr8    O95       2.54502      .   S
    N94    O96       2.36708      .   S
    Zr1    O96       3.56448      .   S
    N94    O97       1.86743      .   S
    Zr9    O97       2.56361  1_455   S
    N94    O98       2.35209      .   S
    Zr3    O98       3.53165      .   S
    N99    O100      1.39963      .   S
    Zr1    O100      2.60117      .   S
    N101   O102      1.39816  1_655   S
    Zr0    O102      2.59739      .   S
    N103   O104      2.35363      .   S
    Zr2    O104      3.53534      .   S
    N103   O105      1.85659  1_565   S
    Zr12   O105      2.54519      .   S
    N103   O106      1.86620      .   S
    Zr13   O106      2.56158      .   S
    N103   O107      2.36967  1_565   S
    Zr3    O107      3.57013      .   S
    N108   O109      1.40021      .   S
    Zr2    O109      2.60319      .   S
    N110   O111      1.40021      .   S
    Zr5    O111      2.60320      .   S
    N112   O113      1.39817  1_455   S
    Zr3    O113      2.59742      .   S
    N114   O115      1.39963      .   S
    Zr4    O115      2.60119      .   S
    N116   O117      2.36966  1_545   S
    Zr0    O117      3.57013      .   S
    N116   O118      2.35364      .   S
    Zr5    O118      3.53536      .   S
    N116   O119      1.86619      .   S
    Zr7    O119      2.56157      .   S
    N116   O120      1.85659  1_545   S
    Zr6    O120      2.54518      .   S
    N121   O122      1.86731      .   S
    Zr17   O122      2.56341      .   S
    N121   O123      2.35149      .   S
    Zr1    O123      3.53010      .   S
    N121   O124      2.36651  1_554   S
    Zr5    O124      3.56204      .   S
    N121   O125      1.85751  1_554   S
    Zr16   O125      2.54668      .   S
