# CIF file generated by openbabel 2.4.90, see http://openbabel.sf.net
data_I
_chemical_name_common ''
_cell_length_a 14.614
_cell_length_b 18.285
_cell_length_c 18.361
_cell_angle_alpha 112.518
_cell_angle_beta 105.626
_cell_angle_gamma 105.429
_space_group_name_H-M_alt 'P 1'
_space_group_name_Hall 'P 1'
loop_
    _symmetry_equiv_pos_as_xyz
    x,y,z
loop_
    _atom_site_label
    _atom_site_type_symbol
    _atom_site_fract_x
    _atom_site_fract_y
    _atom_site_fract_z
    _atom_site_occupancy
    C0      C    0.09232   0.63249   0.23497   1.000
    C1      C    0.85391   0.76158   0.39133   1.000
    C2      C    0.46053   0.60617   0.36660   1.000
    C3      C    0.90765   0.36756   0.76501   1.000
    C4      C    0.14607   0.23847   0.60865   1.000
    C5      C    0.53945   0.39388   0.63338   1.000
    C6      C    0.19127   0.95750   0.47431   1.000
    C7      C    0.43919   0.94056   0.39139   1.000
    C8      C    0.33291   0.78057   0.30127   1.000
    C9      C    0.44678   0.07510   0.40341   1.000
    C10     C    0.33467   0.07493   0.60041   1.000
    C11     C    0.42090   0.23477   0.67580   1.000
    C12     C    0.93612   0.71879   0.17911   1.000
    C13     C    0.84339   0.73589   0.05440   1.000
    C14     C    0.87081   0.67367   0.91793   1.000
    C15     C    0.99269   0.59693   0.91372   1.000
    C16     C    0.08105   0.58978   0.04501   1.000
    C17     C    0.71583   0.52362   0.48352   1.000
    C18     C    0.04686   0.60749   0.54740   1.000
    C19     C    0.02910   0.69620   0.47432   1.000
    C20     C    0.04327   0.59757   0.67129   1.000
    C21     C    0.73437   0.39776   0.47817   1.000
    C22     C    0.74661   0.32364   0.56506   1.000
    C23     C    0.75428   0.81672   0.53243   1.000
    C24     C    0.78899   0.93972   0.67406   1.000
    C25     C    0.95602   0.07481   0.74884   1.000
    C26     C    0.08244   0.07955   0.67730   1.000
    C27     C    0.03630   0.94960   0.53853   1.000
    C28     C    0.23234   0.51755   0.03970   1.000
    C29     C    0.49928   0.45287   0.06147   1.000
    C30     C    0.55359   0.52457   0.22122   1.000
    C31     C    0.37372   0.33041   0.92948   1.000
    C32     C    0.25655   0.52376   0.92035   1.000
    C33     C    0.18365   0.43827   0.76136   1.000
    C34     C    0.21845   0.46438   0.28069   1.000
    C35     C    0.11004   0.32338   0.26564   1.000
    C36     C    0.20088   0.24918   0.32983   1.000
    C37     C    0.39920   0.32076   0.40614   1.000
    C38     C    0.49334   0.45852   0.41119   1.000
    C39     C    0.80870   0.04254   0.52567   1.000
    C40     C    0.56078   0.05948   0.60858   1.000
    C41     C    0.66706   0.21948   0.69870   1.000
    C42     C    0.55319   0.92495   0.59656   1.000
    C43     C    0.66529   0.92512   0.39956   1.000
    C44     C    0.57907   0.76528   0.32417   1.000
    C45     C    0.06385   0.28126   0.82087   1.000
    C46     C    0.15659   0.26416   0.94559   1.000
    C47     C    0.12916   0.32638   0.08205   1.000
    C48     C    0.00728   0.40311   0.08626   1.000
    C49     C    0.91892   0.41026   0.95496   1.000
    C50     C    0.28415   0.47643   0.51646   1.000
    C51     C    0.95312   0.39257   0.45258   1.000
    C52     C    0.97087   0.30385   0.52565   1.000
    C53     C    0.95671   0.40247   0.32868   1.000
    C54     C    0.26561   0.60229   0.52180   1.000
    C55     C    0.25336   0.67641   0.43491   1.000
    C56     C    0.24569   0.18333   0.46754   1.000
    C57     C    0.21098   0.06032   0.32591   1.000
    C58     C    0.04395   0.92524   0.25113   1.000
    C59     C    0.91752   0.92050   0.32267   1.000
    C60     C    0.96366   0.05045   0.46143   1.000
    C61     C    0.76763   0.48250   0.96028   1.000
    C62     C    0.50070   0.54719   0.93850   1.000
    C63     C    0.44639   0.47549   0.77876   1.000
    C64     C    0.62624   0.66964   0.07050   1.000
    C65     C    0.74342   0.47629   0.07963   1.000
    C66     C    0.81631   0.56178   0.23862   1.000
    C67     C    0.78153   0.53567   0.71928   1.000
    C68     C    0.88993   0.67667   0.73433   1.000
    C69     C    0.79910   0.75087   0.67015   1.000
    C70     C    0.60077   0.67929   0.59383   1.000
    C71     C    0.50664   0.54152   0.58878   1.000
    C72     C    0.17076   0.83216   0.38314   1.000
    C73     C    0.22683   0.92159   0.43779   1.000
    C74     C    0.32447   0.96379   0.44119   1.000
    C75     C    0.36325   0.91207   0.39081   1.000
    C76     C    0.30410   0.82265   0.33995   1.000
    C77     C    0.06109   0.78665   0.37303   1.000
    C78     C    0.48168   0.19740   0.50870   1.000
    C79     C    0.43783   0.10664   0.46318   1.000
    C80     C    0.38089   0.05957   0.49314   1.000
    C81     C    0.37591   0.10655   0.57194   1.000
    C82     C    0.42404   0.19694   0.61485   1.000
    C83     C    0.53964   0.24970   0.47443   1.000
    C84     C    0.94713   0.69433   0.11930   1.000
    C85     C    0.89565   0.70320   0.04951   1.000
    C86     C    0.91104   0.66841   0.97387   1.000
    C87     C    0.97789   0.62636   0.97086   1.000
    C88     C    0.02726   0.62109   0.04386   1.000
    C89     C    0.78528   0.61389   0.44621   1.000
    C90     C    0.78761   0.56007   0.48298   1.000
    C91     C    0.88240   0.55739   0.52214   1.000
    C92     C    0.97116   0.60756   0.51924   1.000
    C93     C    0.96197   0.65757   0.47883   1.000
    C94     C    0.68524   0.62343   0.41025   1.000
    C95     C    0.97383   0.49255   0.69117   1.000
    C96     C    0.97492   0.53738   0.64446   1.000
    C97     C    0.88775   0.50625   0.56773   1.000
    C98     C    0.80435   0.42708   0.53777   1.000
    C99     C    0.81026   0.38489   0.58664   1.000
    C100    C    0.06592   0.52807   0.77757   1.000
    C101    C    0.82640   0.87588   0.56795   1.000
    C102    C    0.84630   0.94470   0.64655   1.000
    C103    C    0.93907   0.01958   0.68770   1.000
    C104    C    0.00912   0.02283   0.64909   1.000
    C105    C    0.98379   0.95075   0.57083   1.000
    C106    C    0.33834   0.55368   0.16620   1.000
    C107    C    0.30439   0.51761   0.07667   1.000
    C108    C    0.36023   0.47860   0.03589   1.000
    C109    C    0.45151   0.48087   0.08889   1.000
    C110    C    0.48220   0.52052   0.17819   1.000
    C111    C    0.27425   0.58971   0.21069   1.000
    C112    C    0.28549   0.31168   0.80547   1.000
    C113    C    0.33214   0.35753   0.89595   1.000
    C114    C    0.32078   0.43386   0.94033   1.000
    C115    C    0.26754   0.46437   0.89102   1.000
    C116    C    0.22559   0.41629   0.80108   1.000
    C117    C    0.29287   0.22601   0.75592   1.000
    C118    C    0.25451   0.42906   0.30598   1.000
    C119    C    0.19492   0.35083   0.29824   1.000
    C120    C    0.24576   0.30999   0.33410   1.000
    C121    C    0.35452   0.34856   0.37596   1.000
    C122    C    0.40838   0.42640   0.38005   1.000
    C123    C    0.82921   0.16788   0.61683   1.000
    C124    C    0.77313   0.07845   0.56219   1.000
    C125    C    0.67550   0.03626   0.55879   1.000
    C126    C    0.63672   0.08797   0.60916   1.000
    C127    C    0.69586   0.17740   0.66002   1.000
    C128    C    0.93888   0.21340   0.62695   1.000
    C129    C    0.51829   0.80265   0.49128   1.000
    C130    C    0.56214   0.89341   0.53680   1.000
    C131    C    0.61908   0.94048   0.50683   1.000
    C132    C    0.62406   0.89350   0.42803   1.000
    C133    C    0.57592   0.80311   0.38512   1.000
    C134    C    0.46033   0.75034   0.52554   1.000
    C135    C    0.05284   0.30572   0.88068   1.000
    C136    C    0.10433   0.29685   0.95047   1.000
    C137    C    0.08894   0.33164   0.02611   1.000
    C138    C    0.02208   0.37368   0.02911   1.000
    C139    C    0.97271   0.37896   0.95611   1.000
    C140    C    0.21469   0.38616   0.55376   1.000
    C141    C    0.21237   0.43997   0.51699   1.000
    C142    C    0.11757   0.44266   0.47783   1.000
    C143    C    0.02881   0.39248   0.48072   1.000
    C144    C    0.03800   0.34248   0.52115   1.000
    C145    C    0.31474   0.37662   0.58973   1.000
    C146    C    0.02614   0.50750   0.30881   1.000
    C147    C    0.02505   0.46267   0.35552   1.000
    C148    C    0.11223   0.49379   0.43225   1.000
    C149    C    0.19562   0.57296   0.46221   1.000
    C150    C    0.18971   0.61516   0.41333   1.000
    C151    C    0.93405   0.47198   0.22241   1.000
    C152    C    0.17356   0.12417   0.43202   1.000
    C153    C    0.15367   0.05534   0.35342   1.000
    C154    C    0.06089   0.98046   0.31228   1.000
    C155    C    0.99084   0.97722   0.35088   1.000
    C156    C    0.01617   0.04930   0.42913   1.000
    C157    C    0.66163   0.44637   0.83378   1.000
    C158    C    0.69558   0.48245   0.92331   1.000
    C159    C    0.63974   0.52146   0.96409   1.000
    C160    C    0.54847   0.51919   0.91109   1.000
    C161    C    0.51778   0.47954   0.82179   1.000
    C162    C    0.72572   0.41033   0.78929   1.000
    C163    C    0.71447   0.68837   0.19451   1.000
    C164    C    0.66782   0.64252   0.10402   1.000
    C165    C    0.67919   0.56619   0.05964   1.000
    C166    C    0.73243   0.53568   0.10895   1.000
    C167    C    0.77438   0.58376   0.19889   1.000
    C168    C    0.70710   0.77404   0.24406   1.000
    C169    C    0.74547   0.57098   0.69399   1.000
    C170    C    0.80505   0.64922   0.70173   1.000
    C171    C    0.75422   0.69006   0.66588   1.000
    C172    C    0.64545   0.65149   0.62401   1.000
    C173    C    0.59160   0.57364   0.61992   1.000
    C174    C    0.20889   0.78320   0.33476   1.000
    C175    C    0.47328   0.24141   0.58278   1.000
    C176    C    0.01240   0.65421   0.11699   1.000
    C177    C    0.87144   0.66207   0.44413   1.000
    C178    C    0.89174   0.41801   0.66271   1.000
    C179    C    0.89405   0.87840   0.53044   1.000
    C180    C    0.42621   0.55513   0.21639   1.000
    C181    C    0.23188   0.34052   0.75927   1.000
    C182    C    0.35977   0.46647   0.34597   1.000
    C183    C    0.79107   0.21684   0.66522   1.000
    C184    C    0.52668   0.75863   0.41719   1.000
    C185    C    0.98758   0.34583   0.88298   1.000
    C186    C    0.12853   0.33799   0.55586   1.000
    C187    C    0.10824   0.58203   0.33726   1.000
    C188    C    0.10592   0.12165   0.46953   1.000
    C189    C    0.57377   0.44493   0.78359   1.000
    C190    C    0.76809   0.65952   0.24071   1.000
    C191    C    0.64021   0.53357   0.65399   1.000
    C192    C    0.00658   0.70874   0.31356   1.000
    C193    C    0.03123   0.83208   0.42583   1.000
    C194    C    0.54941   0.32906   0.50290   1.000
    C195    C    0.57238   0.21166   0.42214   1.000
    C196    C    0.68963   0.68261   0.39011   1.000
    C197    C    0.60276   0.57065   0.40418   1.000
    C198    C    0.04740   0.49932   0.82865   1.000
    C199    C    0.15062   0.58157   0.79153   1.000
    C200    C    0.29871   0.60966   0.28931   1.000
    C201    C    0.19793   0.59604   0.16393   1.000
    C202    C    0.22366   0.17480   0.67686   1.000
    C203    C    0.36454   0.21268   0.79553   1.000
    C204    C    0.99339   0.29131   0.68642   1.000
    C205    C    0.96875   0.16797   0.57415   1.000
    C206    C    0.45057   0.67098   0.49707   1.000
    C207    C    0.42761   0.78839   0.57784   1.000
    C208    C    0.31034   0.31743   0.60986   1.000
    C209    C    0.39722   0.42939   0.59579   1.000
    C210    C    0.95256   0.50074   0.17133   1.000
    C211    C    0.84934   0.41849   0.20846   1.000
    C212    C    0.70126   0.39039   0.71066   1.000
    C213    C    0.80205   0.40401   0.83605   1.000
    C214    C    0.77631   0.82525   0.32311   1.000
    C215    C    0.63543   0.78737   0.20445   1.000
    O216    O    0.05551   0.35266   0.02761   1.000
    O217    O    0.10905   0.32901   0.05408   1.000
    O218    O    0.09663   0.31425   0.98829   1.000
    O219    O    0.01468   0.38840   0.05769   1.000
    O220    O    0.99739   0.37632   0.99261   1.000
    O221    O    0.33231   0.49810   0.05628   1.000
    O222    O    0.40587   0.47973   0.06239   1.000
    O223    O    0.34050   0.45623   0.98811   1.000
    O224    O    0.26837   0.51758   0.05818   1.000
    O225    O    0.05416   0.60543   0.04444   1.000
    O226    O    0.01983   0.63765   0.08043   1.000
    O227    O    0.00258   0.62373   0.00736   1.000
    O228    O    0.86952   0.71955   0.05195   1.000
    O229    O    0.92139   0.69876   0.08440   1.000
    O230    O    0.90334   0.68580   0.01169   1.000
    O231    O    0.67351   0.60435   0.08183   1.000
    O232    O    0.70581   0.55093   0.08430   1.000
    O233    O    0.65947   0.54382   0.01187   1.000
    O234    O    0.47539   0.46687   0.07518   1.000
    O235    O    0.64703   0.65608   0.08726   1.000
    O236    O    0.32137   0.53564   0.12143   1.000
    O237    O    0.73793   0.50599   0.09429   1.000
    O238    O    0.46685   0.50070   0.13354   1.000
    O239    O    0.69115   0.66544   0.14926   1.000
    O240    O    0.75340   0.55972   0.15392   1.000
    O241    O    0.97976   0.67427   0.11814   1.000
    O242    O    0.05236   0.64335   0.17598   1.000
    O243    O    0.94163   0.70656   0.14921   1.000
    O244    O    0.23609   0.59288   0.18731   1.000
    O245    O    0.14512   0.61426   0.19945   1.000
    O246    O    0.30630   0.57170   0.18844   1.000
    O247    O    0.38227   0.55441   0.19129   1.000
    O248    O    0.94330   0.48636   0.19687   1.000
    O249    O    0.02244   0.56661   0.20315   1.000
    O250    O    0.45420   0.53782   0.19729   1.000
    O251    O    0.51789   0.52255   0.19970   1.000
    O252    O    0.74128   0.67395   0.21761   1.000
    O253    O    0.71079   0.73121   0.21928   1.000
    O254    O    0.79534   0.57277   0.21875   1.000
    O255    O    0.77123   0.62164   0.21980   1.000
    O256    O    0.67127   0.78071   0.22426   1.000
    O257    O    0.89169   0.44524   0.21544   1.000
    O258    O    0.28648   0.59969   0.25000   1.000
    O259    O    0.44337   0.58065   0.29149   1.000
    O260    O    0.98010   0.48974   0.26561   1.000
    O261    O    0.04945   0.67061   0.27426   1.000
    O262    O    0.15061   0.70785   0.28486   1.000
    O263    O    0.10028   0.60726   0.28611   1.000
    O264    O    0.81100   0.71055   0.31602   1.000
    O265    O    0.74171   0.79965   0.28359   1.000
    O266    O    0.05242   0.95285   0.28170   1.000
    O267    O    0.15248   0.33710   0.28194   1.000
    O268    O    0.23648   0.44672   0.29334   1.000
    O269    O    0.37962   0.60791   0.32795   1.000
    O270    O    0.22472   0.38994   0.30211   1.000
    O271    O    0.22034   0.33041   0.31617   1.000
    O272    O    0.31851   0.80161   0.32061   1.000
    O273    O    0.30714   0.44777   0.32598   1.000
    O274    O    0.06719   0.54476   0.32303   1.000
    O275    O    0.02560   0.48508   0.33216   1.000
    O276    O    0.02587   0.97884   0.33158   1.000
    O277    O    0.10728   0.01790   0.33285   1.000
    O278    O    0.03383   0.74769   0.34329   1.000
    O279    O    0.95418   0.94886   0.33677   1.000
    O280    O    0.81511   0.79341   0.35722   1.000
    O281    O    0.57749   0.78419   0.35465   1.000
    O282    O    0.18233   0.05783   0.33967   1.000
    O283    O    0.99088   0.43257   0.34210   1.000
    O284    O    0.22332   0.27958   0.33196   1.000
    O285    O    0.30014   0.32927   0.35503   1.000
    O286    O    0.25650   0.80292   0.33735   1.000
    O287    O    0.18983   0.80768   0.35895   1.000
    O288    O    0.14898   0.59859   0.37530   1.000
    O289    O    0.33368   0.86736   0.36538   1.000
    O290    O    0.41015   0.53632   0.35629   1.000
    O291    O    0.38407   0.44644   0.36301   1.000
    O292    O    0.00351   0.01326   0.39001   1.000
    O293    O    0.16362   0.08976   0.39272   1.000
    O294    O    0.06864   0.47823   0.39388   1.000
    O295    O    0.53164   0.58841   0.38539   1.000
    O296    O    0.49360   0.68240   0.39189   1.000
    O297    O    0.45555   0.63857   0.43183   1.000
    O298    O    0.11592   0.80940   0.37809   1.000
    O299    O    0.04616   0.80936   0.39943   1.000
    O300    O    0.38145   0.38748   0.37800   1.000
    O301    O    0.37686   0.33466   0.39105   1.000
    O302    O    0.45086   0.44246   0.39562   1.000
    O303    O    0.19880   0.87688   0.41047   1.000
    O304    O    0.55130   0.78087   0.40116   1.000
    O305    O    0.59999   0.84830   0.40658   1.000
    O306    O    0.77177   0.72209   0.39072   1.000
    O307    O    0.68743   0.65302   0.40018   1.000
    O308    O    0.40122   0.92632   0.39110   1.000
    O309    O    0.34386   0.93793   0.41600   1.000
    O310    O    0.94257   0.79683   0.40858   1.000
    O311    O    0.86267   0.71182   0.41773   1.000
    O312    O    0.87398   0.81999   0.46089   1.000
    O313    O    0.64468   0.90931   0.41380   1.000
    O314    O    0.44230   0.09087   0.43329   1.000
    O315    O    0.64400   0.59704   0.40722   1.000
    O316    O    0.73526   0.61866   0.42823   1.000
    O317    O    0.22154   0.64578   0.42412   1.000
    O318    O    0.19267   0.59406   0.43777   1.000
    O319    O    0.52248   0.78064   0.45423   1.000
    O320    O    0.55601   0.23068   0.44829   1.000
    O321    O    0.62157   0.91699   0.46743   1.000
    O322    O    0.98992   0.04988   0.44528   1.000
    O323    O    0.06104   0.08548   0.44933   1.000
    O324    O    0.20963   0.15375   0.44978   1.000
    O325    O    0.13974   0.12291   0.45077   1.000
    O326    O    0.15393   0.53338   0.44723   1.000
    O327    O    0.11490   0.46822   0.45504   1.000
    O328    O    0.27565   0.94269   0.43949   1.000
    O329    O    0.20905   0.93955   0.45605   1.000
    O330    O    0.35268   0.01168   0.46716   1.000
    O331    O    0.82836   0.63798   0.44517   1.000
    O332    O    0.91671   0.65982   0.46148   1.000
    O333    O    0.78644   0.58698   0.46459   1.000
    O334    O    0.99097   0.39252   0.46665   1.000
    O335    O    0.23062   0.58763   0.49200   1.000
    O336    O    0.40936   0.08310   0.47816   1.000
    O337    O    0.45976   0.15202   0.48594   1.000
    O338    O    0.12599   0.18006   0.53909   1.000
    O339    O    0.99554   0.67688   0.47657   1.000
    O340    O    0.54452   0.28938   0.48867   1.000
    O341    O    0.51066   0.22355   0.49157   1.000
    O342    O    0.07319   0.41757   0.47928   1.000
    O343    O    0.16497   0.44132   0.49741   1.000
    O344    O    0.76936   0.41242   0.50797   1.000
    O345    O    0.96657   0.63257   0.49904   1.000
    O346    O    0.03341   0.36748   0.50094   1.000
    O347    O    0.75172   0.54184   0.48325   1.000
    O348    O    0.83500   0.55873   0.50256   1.000
    O349    O    0.48931   0.77649   0.50841   1.000
    O350    O    0.54022   0.84803   0.51404   1.000
    O351    O    0.37840   0.08306   0.53254   1.000
    O352    O    0.45545   0.71066   0.51131   1.000
    O353    O    0.54443   0.36147   0.56814   1.000
    O354    O    0.59061   0.91694   0.52181   1.000
    O355    O    0.64729   0.98837   0.53281   1.000
    O356    O    0.47748   0.21940   0.54574   1.000
    O357    O    0.24826   0.45820   0.51673   1.000
    O358    O    0.21353   0.41307   0.53538   1.000
    O359    O    0.92678   0.58248   0.52069   1.000
    O360    O    0.00901   0.60752   0.53332   1.000
    O361    O    0.00444   0.32316   0.52340   1.000
    O362    O    0.08327   0.34024   0.53850   1.000
    O363    O    0.88508   0.53182   0.54493   1.000
    O364    O    0.44397   0.76936   0.55169   1.000
    O365    O    0.79092   0.06050   0.54393   1.000
    O366    O    0.86022   0.87714   0.54920   1.000
    O367    O    0.93892   0.91457   0.55064   1.000
    O368    O    0.79034   0.84630   0.55019   1.000
    O369    O    0.55767   0.90918   0.56668   1.000
    O370    O    0.84605   0.46667   0.55275   1.000
    O371    O    0.80731   0.40599   0.56220   1.000
    O372    O    0.01005   0.95018   0.55468   1.000
    O373    O    0.17161   0.36208   0.55481   1.000
    O374    O    0.26472   0.38139   0.57175   1.000
    O375    O    0.13730   0.28823   0.58225   1.000
    O376    O    0.72432   0.05735   0.56049   1.000
    O377    O    0.65611   0.06212   0.58398   1.000
    O378    O    0.80117   0.12317   0.58951   1.000
    O379    O    0.77844   0.35426   0.57585   1.000
    O380    O    0.93133   0.52182   0.60609   1.000
    O381    O    0.83635   0.91029   0.60725   1.000
    O382    O    0.99646   0.98679   0.60996   1.000
    O383    O    0.35529   0.09074   0.58618   1.000
    O384    O    0.39998   0.15174   0.59340   1.000
    O385    O    0.05741   0.20322   0.59140   1.000
    O386    O    0.95381   0.19068   0.60055   1.000
    O387    O    0.44866   0.21917   0.59881   1.000
    O388    O    0.50637   0.31764   0.60808   1.000
    O389    O    0.85100   0.40145   0.62467   1.000
    O390    O    0.54912   0.55758   0.60435   1.000
    O391    O    0.35598   0.40301   0.59276   1.000
    O392    O    0.31254   0.34703   0.59980   1.000
    O393    O    0.62311   0.66539   0.60892   1.000
    O394    O    0.46833   0.41163   0.61458   1.000
    O395    O    0.59875   0.07373   0.60887   1.000
    O396    O    0.22820   0.27795   0.60925   1.000
    O397    O    0.18486   0.20663   0.64275   1.000
    O398    O    0.18897   0.28950   0.68396   1.000
    O399    O    0.66629   0.13269   0.63459   1.000
    O400    O    0.42247   0.21585   0.64532   1.000
    O401    O    0.88405   0.19064   0.62189   1.000
    O402    O    0.81014   0.19236   0.64102   1.000
    O403    O    0.61852   0.61256   0.62197   1.000
    O404    O    0.61590   0.55360   0.63696   1.000
    O405    O    0.69983   0.67077   0.64495   1.000
    O406    O    0.96614   0.25235   0.65668   1.000
    O407    O    0.58983   0.46372   0.64368   1.000
    O408    O    0.62035   0.39213   0.67202   1.000
    O409    O    0.55661   0.41940   0.70848   1.000
    O410    O    0.00910   0.56747   0.65787   1.000
    O411    O    0.97437   0.51496   0.66781   1.000
    O412    O    0.81764   0.94221   0.66031   1.000
    O413    O    0.89269   0.98214   0.66712   1.000
    O414    O    0.04578   0.05119   0.66320   1.000
    O415    O    0.97410   0.02121   0.66840   1.000
    O416    O    0.69284   0.55228   0.67399   1.000
    O417    O    0.74347   0.19712   0.66262   1.000
    O418    O    0.68146   0.19844   0.67936   1.000
    O419    O    0.93278   0.45528   0.67694   1.000
    O420    O    0.89969   0.39278   0.71386   1.000
    O421    O    0.84936   0.29220   0.71511   1.000
    O422    O    0.77666   0.72047   0.66801   1.000
    O423    O    0.77963   0.66964   0.68381   1.000
    O424    O    0.25826   0.20040   0.71639   1.000
    O425    O    0.95052   0.32943   0.72571   1.000
    O426    O    0.94754   0.04720   0.71827   1.000
    O427    O    0.01987   0.51031   0.73437   1.000
    O428    O    0.77526   0.61010   0.69786   1.000
    O429    O    0.76350   0.55333   0.70663   1.000
    O430    O    0.84749   0.66294   0.71803   1.000
    O431    O    0.71349   0.40036   0.74998   1.000
    O432    O    0.32870   0.21934   0.77572   1.000
    O433    O    0.28918   0.26884   0.78070   1.000
    O434    O    0.22873   0.37840   0.78017   1.000
    O435    O    0.25868   0.32610   0.78237   1.000
    O436    O    0.20462   0.42728   0.78122   1.000
    O437    O    0.97752   0.43344   0.79683   1.000
    O438    O    0.85485   0.38578   0.80053   1.000
    O439    O    0.94761   0.35669   0.82400   1.000
    O440    O    0.10827   0.55482   0.78455   1.000
    O441    O    0.05666   0.51370   0.80311   1.000
    O442    O    0.48209   0.47752   0.80027   1.000
    O443    O    0.54578   0.46224   0.80269   1.000
    O444    O    0.61770   0.44565   0.80868   1.000
    O445    O    0.69368   0.42835   0.81153   1.000
    O446    O    0.76388   0.40717   0.81267   1.000
    O447    O    0.24656   0.44033   0.84605   1.000
    O448    O    0.30882   0.33460   0.85071   1.000
    O449    O    0.05835   0.29349   0.85077   1.000
    O450    O    0.53312   0.49936   0.86644   1.000
    O451    O    0.67861   0.46441   0.87854   1.000
    O452    O    0.02021   0.32578   0.88183   1.000
    O453    O    0.07858   0.30129   0.91558   1.000
    O454    O    0.98014   0.36240   0.91955   1.000
    O455    O    0.26205   0.49407   0.90568   1.000
    O456    O    0.29416   0.44912   0.91568   1.000
    O457    O    0.35293   0.34397   0.91272   1.000
    O458    O    0.32646   0.39570   0.91814   1.000
    O459    O    0.52458   0.53319   0.92479   1.000
    O460    O    0.59410   0.52032   0.93759   1.000
    O461    O    0.98529   0.61165   0.94229   1.000
    O462    O    0.89092   0.67104   0.94590   1.000
    O463    O    0.73161   0.48247   0.94179   1.000
    O464    O    0.66766   0.50195   0.94370   1.000
    O465    O    0.13046   0.28051   0.94803   1.000
    O466    O    0.94581   0.39461   0.95554   1.000
    O467    O    0.94446   0.64739   0.97237   1.000
loop_
    _geom_bond_atom_site_label_1
    _geom_bond_atom_site_label_2
    _geom_bond_distance
    _geom_bond_site_symmetry_2
    _ccdc_geom_bond_type
    C137   O216      0.69729      .   S
    C138   O216      0.69729      .   S
    C137   O217      0.54552      .   S
    C47    O217      0.54552      .   S
    C137   O218      0.69850  1_554   S
    C136   O218      0.69850      .   S
    C138   O219      0.54516      .   S
    C48    O219      0.54516      .   S
    C138   O220      0.69668  1_454   S
    C139   O220      0.69668      .   S
    C108   O221      0.70091      .   S
    C107   O221      0.70091      .   S
    C108   O222      0.70152      .   S
    C109   O222      0.70152      .   S
    C108   O223      0.73900  1_554   S
    C114   O223      0.73900      .   S
    C28    O224      0.54393      .   S
    C107   O224      0.54393      .   S
    C88    O225      0.54447      .   S
    C16    O225      0.54447      .   S
    C88    O226      0.67478      .   S
    C176   O226      0.67478      .   S
    C88    O227      0.69668      .   S
    C87    O227      0.69668  1_656   S
    C85    O228      0.54488      .   S
    C13    O228      0.54488      .   S
    C85    O229      0.69625      .   S
    C84    O229      0.69625      .   S
    C85    O230      0.69849      .   S
    C86    O230      0.69849  1_556   S
    C165   O231      0.70088      .   S
    C164   O231      0.70088      .   S
    C165   O232      0.70253      .   S
    C166   O232      0.70253      .   S
    C165   O233      0.73899      .   S
    C159   O233      0.73899  1_556   S
    C29    O234      0.54424      .   S
    C109   O234      0.54424      .   S
    C64    O235      0.54468      .   S
    C164   O235      0.54468      .   S
    C107   O236      0.69633      .   S
    C106   O236      0.69633      .   S
    C65    O237      0.54468      .   S
    C166   O237      0.54468      .   S
    C109   O238      0.69563      .   S
    C110   O238      0.69563      .   S
    C164   O239      0.69761      .   S
    C163   O239      0.69761      .   S
    C166   O240      0.69493      .   S
    C167   O240      0.69493      .   S
    C176   O241      0.67452  1_455   S
    C84    O241      0.67452      .   S
    C176   O242      1.19968      .   S
    C0     O242      1.19968      .   S
    C84    O243      0.54527      .   S
    C12    O243      0.54527      .   S
    C201   O244      0.63706      .   S
    C111   O244      0.63706      .   S
    C201   O245      1.17188      .   S
    C0     O245      1.17188      .   S
    C106   O246      0.75941      .   S
    C111   O246      0.75941      .   S
    C106   O247      0.67538      .   S
    C180   O247      0.67538      .   S
    C210   O248      0.64582      .   S
    C151   O248      0.64582      .   S
    C210   O249      1.14900  1_655   S
    C0     O249      1.14900      .   S
    C110   O250      0.67204      .   S
    C180   O250      0.67204      .   S
    C110   O251      0.54504      .   S
    C30    O251      0.54504      .   S
    C163   O252      0.67387      .   S
    C190   O252      0.67387      .   S
    C163   O253      0.76557      .   S
    C168   O253      0.76557      .   S
    C167   O254      0.54407      .   S
    C66    O254      0.54407      .   S
    C167   O255      0.67232      .   S
    C190   O255      0.67232      .   S
    C215   O256      0.62177      .   S
    C168   O256      0.62177      .   S
    C211   O257      0.62199      .   S
    C151   O257      0.62199      .   S
    C111   O258      0.63133      .   S
    C200   O258      0.63133      .   S
    C180   O259      1.20034      .   S
    C2     O259      1.20034      .   S
    C151   O260      0.76570      .   S
    C146   O260      0.76570  1_455   S
    C0     O261      1.22052      .   S
    C192   O261      1.22052      .   S
    C0     O262      1.20486      .   S
    C174   O262      1.20486      .   S
    C0     O263      1.18735      .   S
    C187   O263      1.18735      .   S
    C190   O264      1.18709      .   S
    C1     O264      1.18709      .   S
    C168   O265      0.64630      .   S
    C214   O265      0.64630      .   S
    C58    O266      0.54551      .   S
    C154   O266      0.54551      .   S
    C35    O267      0.54488      .   S
    C119   O267      0.54488      .   S
    C34    O268      0.54528      .   S
    C118   O268      0.54528      .   S
    C200   O269      1.21979      .   S
    C2     O269      1.21979      .   S
    C119   O270      0.69632      .   S
    C118   O270      0.69632      .   S
    C119   O271      0.69843      .   S
    C120   O271      0.69843      .   S
    C8     O272      0.54506      .   S
    C76    O272      0.54506      .   S
    C118   O273      0.67459      .   S
    C182   O273      0.67459      .   S
    C146   O274      0.67390      .   S
    C187   O274      0.67390      .   S
    C146   O275      0.69762      .   S
    C147   O275      0.69762      .   S
    C154   O276      0.69725      .   S
    C155   O276      0.69725  1_655   S
    C154   O277      0.69854  1_565   S
    C153   O277      0.69854      .   S
    C192   O278      0.63095      .   S
    C77    O278      0.63095      .   S
    C59    O279      0.54550      .   S
    C155   O279      0.54550      .   S
    C214   O280      1.14720      .   S
    C1     O280      1.14720      .   S
    C44    O281      0.54417      .   S
    C133   O281      0.54417      .   S
    C57    O282      0.54489      .   S
    C153   O282      0.54489      .   S
    C53    O283      0.54462      .   S
    C147   O283      0.54462  1_455   S
    C36    O284      0.54553      .   S
    C120   O284      0.54553      .   S
    C120   O285      0.69729      .   S
    C121   O285      0.69729      .   S
    C174   O286      0.67218      .   S
    C76    O286      0.67218      .   S
    C174   O287      0.67532      .   S
    C72    O287      0.67532      .   S
    C187   O288      0.67228      .   S
    C150   O288      0.67228      .   S
    C76    O289      0.69578      .   S
    C75    O289      0.69578      .   S
    C182   O290      1.20352      .   S
    C2     O290      1.20352      .   S
    C182   O291      0.67479      .   S
    C122   O291      0.67479      .   S
    C155   O292      0.69682  1_665   S
    C156   O292      0.69682      .   S
    C153   O293      0.69629      .   S
    C152   O293      0.69629      .   S
    C147   O294      0.70088      .   S
    C148   O294      0.70088      .   S
    C2     O295      1.17338      .   S
    C197   O295      1.17338      .   S
    C2     O296      1.19037      .   S
    C184   O296      1.19037      .   S
    C2     O297      1.14780      .   S
    C206   O297      1.14780      .   S
    C77    O298      0.75952      .   S
    C72    O298      0.75952      .   S
    C77    O299      0.63726      .   S
    C193   O299      0.63726      .   S
    C121   O300      0.69671      .   S
    C122   O300      0.69671      .   S
    C121   O301      0.54522      .   S
    C37    O301      0.54522      .   S
    C122   O302      0.54445      .   S
    C38    O302      0.54445      .   S
    C72    O303      0.69635      .   S
    C73    O303      0.69635      .   S
    C133   O304      0.67263      .   S
    C184   O304      0.67263      .   S
    C133   O305      0.69511      .   S
    C132   O305      0.69511      .   S
    C196   O306      1.21975      .   S
    C1     O306      1.21975      .   S
    C196   O307      0.63129      .   S
    C94    O307      0.63129      .   S
    C75    O308      0.54425      .   S
    C7     O308      0.54425      .   S
    C75    O309      0.70153      .   S
    C74    O309      0.70153      .   S
    C1     O310      1.17164      .   S
    C193   O310      1.17164  1_455   S
    C1     O311      1.20229      .   S
    C177   O311      1.20229      .   S
    C1     O312      1.20189      .   S
    C179   O312      1.20189      .   S
    C43    O313      0.54466      .   S
    C132   O313      0.54466      .   S
    C9     O314      0.54466      .   S
    C79    O314      0.54466      .   S
    C197   O315      0.63701      .   S
    C94    O315      0.63701      .   S
    C94    O316      0.75956      .   S
    C89    O316      0.75956      .   S
    C150   O317      0.54405      .   S
    C55    O317      0.54405      .   S
    C150   O318      0.69494      .   S
    C149   O318      0.69494      .   S
    C184   O319      0.67395      .   S
    C129   O319      0.67395      .   S
    C195   O320      0.62198      .   S
    C83    O320      0.62198      .   S
    C132   O321      0.70258      .   S
    C131   O321      0.70258      .   S
    C156   O322      0.54433  1_455   S
    C60    O322      0.54433      .   S
    C156   O323      0.67484      .   S
    C188   O323      0.67484      .   S
    C152   O324      0.54524      .   S
    C56    O324      0.54524      .   S
    C152   O325      0.67460      .   S
    C188   O325      0.67460      .   S
    C148   O326      0.70245      .   S
    C149   O326      0.70245      .   S
    C148   O327      0.73890      .   S
    C142   O327      0.73890      .   S
    C73    O328      0.70078      .   S
    C74    O328      0.70078      .   S
    C73    O329      0.54383      .   S
    C6     O329      0.54383      .   S
    C74    O330      0.73915  1_565   S
    C80    O330      0.73915      .   S
    C177   O331      0.67537      .   S
    C89    O331      0.67537      .   S
    C177   O332      0.67210      .   S
    C93    O332      0.67210      .   S
    C89    O333      0.69634      .   S
    C90    O333      0.69634      .   S
    C51    O334      0.54415      .   S
    C143   O334      0.54415  1_455   S
    C149   O335      0.54468      .   S
    C54    O335      0.54468      .   S
    C79    O336      0.70071      .   S
    C80    O336      0.70071      .   S
    C79    O337      0.69761      .   S
    C78    O337      0.69761      .   S
    C188   O338      1.20190      .   S
    C4     O338      1.20190      .   S
    C19    O339      0.54498  1_455   S
    C93    O339      0.54498      .   S
    C83    O340      0.64578      .   S
    C194   O340      0.64578      .   S
    C83    O341      0.76562      .   S
    C78    O341      0.76562      .   S
    C142   O342      0.70149      .   S
    C143   O342      0.70149      .   S
    C142   O343      0.70093      .   S
    C141   O343      0.70093      .   S
    C21    O344      0.54467      .   S
    C98    O344      0.54467      .   S
    C93    O345      0.69574      .   S
    C92    O345      0.69574      .   S
    C143   O346      0.69575      .   S
    C144   O346      0.69575      .   S
    C90    O347      0.54390      .   S
    C17    O347      0.54390      .   S
    C90    O348      0.70092      .   S
    C91    O348      0.70092      .   S
    C129   O349      0.76562      .   S
    C134   O349      0.76562      .   S
    C129   O350      0.69760      .   S
    C130   O350      0.69760      .   S
    C80    O351      0.70259      .   S
    C81    O351      0.70259      .   S
    C206   O352      0.64578      .   S
    C134   O352      0.64578      .   S
    C194   O353      1.14780      .   S
    C5     O353      1.14780      .   S
    C131   O354      0.70073      .   S
    C130   O354      0.70073      .   S
    C131   O355      0.73916      .   S
    C125   O355      0.73916  1_545   S
    C78    O356      0.67395      .   S
    C175   O356      0.67395      .   S
    C50    O357      0.54390      .   S
    C141   O357      0.54390      .   S
    C141   O358      0.69632      .   S
    C140   O358      0.69632      .   S
    C92    O359      0.70149      .   S
    C91    O359      0.70149      .   S
    C92    O360      0.54415  1_655   S
    C18    O360      0.54415      .   S
    C144   O361      0.54498      .   S
    C52    O361      0.54498  1_655   S
    C144   O362      0.67210      .   S
    C186   O362      0.67210      .   S
    C91    O363      0.73891      .   S
    C97    O363      0.73891      .   S
    C134   O364      0.62198      .   S
    C207   O364      0.62198      .   S
    C39    O365      0.54383      .   S
    C124   O365      0.54383      .   S
    C179   O366      0.67460      .   S
    C101   O366      0.67460      .   S
    C179   O367      0.67484      .   S
    C105   O367      0.67484      .   S
    C23    O368      0.54524      .   S
    C101   O368      0.54524      .   S
    C130   O369      0.54466      .   S
    C42    O369      0.54466      .   S
    C98    O370      0.70245      .   S
    C97    O370      0.70245      .   S
    C98    O371      0.69494      .   S
    C99    O371      0.69494      .   S
    C27    O372      0.54433      .   S
    C105   O372      0.54433  1_655   S
    C140   O373      0.67538      .   S
    C186   O373      0.67538      .   S
    C140   O374      0.75958      .   S
    C145   O374      0.75958      .   S
    C186   O375      1.20230      .   S
    C4     O375      1.20230      .   S
    C125   O376      0.70078      .   S
    C124   O376      0.70078      .   S
    C125   O377      0.70153      .   S
    C126   O377      0.70153      .   S
    C124   O378      0.69635      .   S
    C123   O378      0.69635      .   S
    C22    O379      0.54405      .   S
    C99    O379      0.54405      .   S
    C97    O380      0.70088      .   S
    C96    O380      0.70088      .   S
    C101   O381      0.69629      .   S
    C102   O381      0.69629      .   S
    C105   O382      0.69682      .   S
    C104   O382      0.69682  1_445   S
    C81    O383      0.54467      .   S
    C10    O383      0.54467      .   S
    C81    O384      0.69512      .   S
    C82    O384      0.69512      .   S
    C205   O385      1.17164  1_655   S
    C4     O385      1.17164      .   S
    C205   O386      0.63725      .   S
    C128   O386      0.63725      .   S
    C175   O387      0.67262      .   S
    C82    O387      0.67262      .   S
    C175   O388      1.19038      .   S
    C5     O388      1.19038      .   S
    C99    O389      0.67228      .   S
    C178   O389      0.67228      .   S
    C71    O390      0.54445      .   S
    C173   O390      0.54445      .   S
    C145   O391      0.63701      .   S
    C209   O391      0.63701      .   S
    C145   O392      0.63128      .   S
    C208   O392      0.63128      .   S
    C70    O393      0.54522      .   S
    C172   O393      0.54522      .   S
    C209   O394      1.17336      .   S
    C5     O394      1.17336      .   S
    C40    O395      0.54425      .   S
    C126   O395      0.54425      .   S
    C4     O396      1.21974      .   S
    C208   O396      1.21974      .   S
    C4     O397      1.14719      .   S
    C202   O397      1.14719      .   S
    C4     O398      1.18709      .   S
    C181   O398      1.18709      .   S
    C126   O399      0.69578      .   S
    C127   O399      0.69578      .   S
    C82    O400      0.54416      .   S
    C11    O400      0.54416      .   S
    C123   O401      0.75952      .   S
    C128   O401      0.75952      .   S
    C123   O402      0.67533      .   S
    C183   O402      0.67533      .   S
    C173   O403      0.69671      .   S
    C172   O403      0.69671      .   S
    C173   O404      0.67479      .   S
    C191   O404      0.67479      .   S
    C172   O405      0.69729      .   S
    C171   O405      0.69729      .   S
    C128   O406      0.63095      .   S
    C204   O406      0.63095      .   S
    C5     O407      1.20352      .   S
    C191   O407      1.20352      .   S
    C5     O408      1.21979      .   S
    C212   O408      1.21979      .   S
    C5     O409      1.20035      .   S
    C189   O409      1.20035      .   S
    C96    O410      0.54462  1_655   S
    C20    O410      0.54462      .   S
    C96    O411      0.69762      .   S
    C95    O411      0.69762      .   S
    C102   O412      0.54489      .   S
    C24    O412      0.54489      .   S
    C102   O413      0.69854      .   S
    C103   O413      0.69854  1_545   S
    C104   O414      0.54549      .   S
    C26    O414      0.54549      .   S
    C104   O415      0.69726  1_455   S
    C103   O415      0.69726      .   S
    C191   O416      0.67458      .   S
    C169   O416      0.67458      .   S
    C127   O417      0.67217      .   S
    C183   O417      0.67217      .   S
    C127   O418      0.54506      .   S
    C41    O418      0.54506      .   S
    C178   O419      0.67391      .   S
    C95    O419      0.67391      .   S
    C178   O420      1.18737      .   S
    C3     O420      1.18737      .   S
    C183   O421      1.20486      .   S
    C3     O421      1.20486      .   S
    C171   O422      0.54554      .   S
    C69    O422      0.54554      .   S
    C171   O423      0.69842      .   S
    C170   O423      0.69842      .   S
    C202   O424      0.64631      .   S
    C117   O424      0.64631      .   S
    C204   O425      1.22050      .   S
    C3     O425      1.22050      .   S
    C103   O426      0.54550      .   S
    C25    O426      0.54550      .   S
    C95    O427      0.76570  1_655   S
    C100   O427      0.76570      .   S
    C169   O428      0.69632      .   S
    C170   O428      0.69632      .   S
    C169   O429      0.54528      .   S
    C67    O429      0.54528      .   S
    C170   O430      0.54488      .   S
    C68    O430      0.54488      .   S
    C212   O431      0.63134      .   S
    C162   O431      0.63134      .   S
    C117   O432      0.62177      .   S
    C203   O432      0.62177      .   S
    C117   O433      0.76557      .   S
    C112   O433      0.76557      .   S
    C181   O434      0.67232      .   S
    C116   O434      0.67232      .   S
    C181   O435      0.67387      .   S
    C112   O435      0.67387      .   S
    C33    O436      0.54408      .   S
    C116   O436      0.54408      .   S
    C3     O437      1.14901      .   S
    C198   O437      1.14901  1_455   S
    C3     O438      1.17188      .   S
    C213   O438      1.17188      .   S
    C3     O439      1.19970      .   S
    C185   O439      1.19970      .   S
    C100   O440      0.62199      .   S
    C199   O440      0.62199      .   S
    C100   O441      0.64581      .   S
    C198   O441      0.64581      .   S
    C63    O442      0.54503      .   S
    C161   O442      0.54503      .   S
    C189   O443      0.67204      .   S
    C161   O443      0.67204      .   S
    C189   O444      0.67538      .   S
    C157   O444      0.67538      .   S
    C162   O445      0.75941      .   S
    C157   O445      0.75941      .   S
    C162   O446      0.63706      .   S
    C213   O446      0.63706      .   S
    C116   O447      0.69493      .   S
    C115   O447      0.69493      .   S
    C112   O448      0.69760      .   S
    C113   O448      0.69760      .   S
    C45    O449      0.54528      .   S
    C135   O449      0.54528      .   S
    C161   O450      0.69563      .   S
    C160   O450      0.69563      .   S
    C157   O451      0.69633      .   S
    C158   O451      0.69633      .   S
    C135   O452      0.67452      .   S
    C185   O452      0.67452  1_655   S
    C135   O453      0.69624      .   S
    C136   O453      0.69624      .   S
    C185   O454      0.67478      .   S
    C139   O454      0.67478      .   S
    C115   O455      0.54468      .   S
    C32    O455      0.54468      .   S
    C115   O456      0.70254      .   S
    C114   O456      0.70254      .   S
    C113   O457      0.54467      .   S
    C31    O457      0.54467      .   S
    C113   O458      0.70087      .   S
    C114   O458      0.70087      .   S
    C160   O459      0.54424      .   S
    C62    O459      0.54424      .   S
    C160   O460      0.70152      .   S
    C159   O460      0.70152      .   S
    C15    O461      0.54517      .   S
    C87    O461      0.54517      .   S
    C14    O462      0.54552      .   S
    C86    O462      0.54552      .   S
    C158   O463      0.54392      .   S
    C61    O463      0.54392      .   S
    C158   O464      0.70091      .   S
    C159   O464      0.70091      .   S
    C46    O465      0.54487      .   S
    C136   O465      0.54487      .   S
    C49    O466      0.54446      .   S
    C139   O466      0.54446      .   S
    C87    O467      0.69729      .   S
    C86    O467      0.69729      .   S
