# CIF file generated by openbabel 2.4.90, see http://openbabel.sf.net
data_I
_chemical_name_common ''
_cell_length_a 17.555
_cell_length_b 17.545
_cell_length_c 15.913
_cell_angle_alpha 90
_cell_angle_beta 89.999
_cell_angle_gamma 92.602
_space_group_name_H-M_alt 'P 1'
_space_group_name_Hall 'P 1'
loop_
    _symmetry_equiv_pos_as_xyz
    x,y,z
loop_
    _atom_site_label
    _atom_site_type_symbol
    _atom_site_fract_x
    _atom_site_fract_y
    _atom_site_fract_z
    _atom_site_occupancy
    Zr0     Zr   0.46494   0.03497   0.32065   1.000
    Zr1     Zr   0.46494   0.53496   0.32065   1.000
    Zr2     Zr   0.96495   0.03497   0.32065   1.000
    Zr3     Zr   0.96495   0.53496   0.32065   1.000
    Zr4     Zr   0.17309   0.32681   0.18737   1.000
    Zr5     Zr   0.17309   0.82680   0.18737   1.000
    Zr6     Zr   0.67310   0.32681   0.18737   1.000
    Zr7     Zr   0.67310   0.82680   0.18737   1.000
    Zr8     Zr   0.32028   0.17969   0.27074   1.000
    Zr9     Zr   0.32028   0.67968   0.27074   1.000
    Zr10    Zr   0.82029   0.17969   0.27074   1.000
    Zr11    Zr   0.82029   0.67968   0.27074   1.000
    Zr12    Zr   0.03507   0.46499   0.82063   1.000
    Zr13    Zr   0.03507   0.96498   0.82063   1.000
    Zr14    Zr   0.53508   0.46499   0.82063   1.000
    Zr15    Zr   0.53508   0.96498   0.82063   1.000
    Zr16    Zr   0.32692   0.17316   0.68737   1.000
    Zr17    Zr   0.32692   0.67315   0.68737   1.000
    Zr18    Zr   0.82693   0.17316   0.68737   1.000
    Zr19    Zr   0.82693   0.67315   0.68737   1.000
    Zr20    Zr   0.17973   0.32028   0.77070   1.000
    Zr21    Zr   0.17973   0.82027   0.77070   1.000
    Zr22    Zr   0.67974   0.32028   0.77070   1.000
    Zr23    Zr   0.67974   0.82027   0.77070   1.000
    N24     N    0.21642   0.52280   0.73044   1.000
    O25     O    0.15429   0.50262   0.76056   1.000
    O26     O    0.25285   0.57108   0.71539   1.000
    O27     O    0.20386   0.45355   0.74250   1.000
    N28     N    0.62649   0.87347   0.99041   1.000
    O29     O    0.64070   0.85924   0.05472   1.000
    O30     O    0.59420   0.90583   0.93375   1.000
    O31     O    0.64348   0.85648   0.91549   1.000
    N32     N    0.71643   0.52280   0.73044   1.000
    O33     O    0.65430   0.50262   0.76056   1.000
    O34     O    0.70387   0.45355   0.74250   1.000
    O35     O    0.75286   0.57108   0.71539   1.000
    N36     N    0.87354   0.62647   0.49044   1.000
    O37     O    0.90583   0.59412   0.43378   1.000
    O38     O    0.85656   0.64347   0.41552   1.000
    O39     O    0.85934   0.64071   0.55474   1.000
    N40     N    0.28359   0.47716   0.23047   1.000
    O41     O    0.29614   0.54642   0.24252   1.000
    O42     O    0.34572   0.49734   0.26058   1.000
    O43     O    0.24716   0.42888   0.21541   1.000
    N44     N    0.62649   0.37348   0.99041   1.000
    O45     O    0.64070   0.35925   0.05472   1.000
    O46     O    0.64347   0.35649   0.91549   1.000
    O47     O    0.59420   0.40584   0.93375   1.000
    N48     N    0.78360   0.97716   0.23047   1.000
    O49     O    0.74717   0.92888   0.21541   1.000
    O50     O    0.79615   0.04642   0.24252   1.000
    O51     O    0.84573   0.99735   0.26058   1.000
    N52     N    0.97734   0.78349   0.73046   1.000
    O53     O    0.99753   0.84566   0.76057   1.000
    O54     O    0.04656   0.79604   0.74252   1.000
    O55     O    0.92904   0.74711   0.71540   1.000
    N56     N    0.37353   0.12648   0.49044   1.000
    O57     O    0.35655   0.14348   0.41552   1.000
    O58     O    0.40582   0.09413   0.43378   1.000
    O59     O    0.35932   0.14072   0.55474   1.000
    N60     N    0.28359   0.97716   0.23047   1.000
    O61     O    0.34572   0.99735   0.26058   1.000
    O62     O    0.24716   0.92888   0.21541   1.000
    O63     O    0.29614   0.04642   0.24252   1.000
    N64     N    0.52268   0.71647   0.23051   1.000
    O65     O    0.57098   0.75285   0.21545   1.000
    O66     O    0.45346   0.70391   0.24257   1.000
    O67     O    0.50249   0.65429   0.26061   1.000
    N68     N    0.52268   0.21647   0.23051   1.000
    O69     O    0.50249   0.15430   0.26061   1.000
    O70     O    0.57098   0.25286   0.21545   1.000
    O71     O    0.45346   0.20392   0.24257   1.000
    N72     N    0.78360   0.47716   0.23047   1.000
    O73     O    0.74717   0.42888   0.21541   1.000
    O74     O    0.84573   0.49734   0.26058   1.000
    O75     O    0.79615   0.54642   0.24252   1.000
    N76     N    0.02268   0.71647   0.23051   1.000
    O77     O    0.00249   0.65429   0.26061   1.000
    O78     O    0.07098   0.75285   0.21545   1.000
    O79     O    0.95347   0.70391   0.24257   1.000
    N80     N    0.47734   0.28350   0.73047   1.000
    O81     O    0.49753   0.34567   0.76058   1.000
    O82     O    0.42904   0.24712   0.71542   1.000
    O83     O    0.54656   0.29605   0.74253   1.000
    N84     N    0.71643   0.02280   0.73044   1.000
    O85     O    0.75286   0.07109   0.71539   1.000
    O86     O    0.65430   0.00261   0.76056   1.000
    O87     O    0.70387   0.95354   0.74250   1.000
    N88     N    0.12648   0.37348   0.99041   1.000
    O89     O    0.09419   0.40584   0.93375   1.000
    O90     O    0.14346   0.35649   0.91549   1.000
    O91     O    0.14069   0.35925   0.05472   1.000
    N92     N    0.12648   0.87347   0.99041   1.000
    O93     O    0.14347   0.85648   0.91549   1.000
    O94     O    0.09419   0.90583   0.93375   1.000
    O95     O    0.14069   0.85924   0.05472   1.000
    N96     N    0.87354   0.12648   0.49044   1.000
    O97     O    0.85656   0.14348   0.41552   1.000
    O98     O    0.90583   0.09413   0.43378   1.000
    O99     O    0.85933   0.14072   0.55474   1.000
    N100    N    0.02268   0.21648   0.23051   1.000
    O101    O    0.07098   0.25286   0.21545   1.000
    O102    O    0.00249   0.15430   0.26061   1.000
    O103    O    0.95346   0.20392   0.24257   1.000
    N104    N    0.21642   0.02280   0.73044   1.000
    O105    O    0.15429   0.00261   0.76056   1.000
    O106    O    0.25285   0.07109   0.71539   1.000
    O107    O    0.20386   0.95354   0.74250   1.000
    N108    N    0.37353   0.62648   0.49044   1.000
    O109    O    0.35933   0.64071   0.55474   1.000
    O110    O    0.35655   0.64347   0.41552   1.000
    O111    O    0.40582   0.59412   0.43378   1.000
    N112    N    0.97734   0.28350   0.73046   1.000
    O113    O    0.04655   0.29605   0.74252   1.000
    O114    O    0.92904   0.24712   0.71541   1.000
    O115    O    0.99753   0.34567   0.76057   1.000
    N116    N    0.47734   0.78349   0.73045   1.000
    O117    O    0.49753   0.84566   0.76056   1.000
    O118    O    0.54656   0.79604   0.74252   1.000
    O119    O    0.42904   0.74711   0.71539   1.000
loop_
    _geom_bond_atom_site_label_1
    _geom_bond_atom_site_label_2
    _geom_bond_distance
    _geom_bond_site_symmetry_2
    _ccdc_geom_bond_type
    N24    O25       1.22862      .   S
    Zr12   O25       2.36733      .   S
    N24    O26       1.06527      .   S
    Zr17   O26       2.21029      .   S
    N24    O27       1.23996      .   S
    Zr20   O27       2.39950      .   S
    N28    O29       1.08513  1_556   S
    Zr7    O29       2.26549      .   S
    N28    O30       1.21889      .   S
    Zr15   O30       2.34367      .   S
    N28    O31       1.26776      .   S
    Zr23   O31       2.48076      .   S
    N32    O33       1.22862      .   S
    Zr14   O33       2.36733      .   S
    N32    O34       1.23996      .   S
    Zr22   O34       2.39950      .   S
    N32    O35       1.06527      .   S
    Zr19   O35       2.21029      .   S
    N36    O37       1.21889      .   S
    Zr3    O37       2.34367      .   S
    N36    O38       1.26770      .   S
    Zr11   O38       2.48068      .   S
    N36    O39       1.08499      .   S
    Zr19   O39       2.26527      .   S
    N40    O41       1.23994      .   S
    Zr9    O41       2.39957      .   S
    N40    O42       1.22864      .   S
    Zr1    O42       2.36736      .   S
    N40    O43       1.06528      .   S
    Zr4    O43       2.21033      .   S
    N44    O45       1.08513  1_556   S
    Zr6    O45       2.26549      .   S
    N44    O46       1.26776      .   S
    Zr22   O46       2.48077      .   S
    N44    O47       1.21890      .   S
    Zr14   O47       2.34367      .   S
    N48    O49       1.06534      .   S
    Zr7    O49       2.21040      .   S
    N48    O50       1.24001  1_565   S
    Zr10   O50       2.39963      .   S
    N48    O51       1.22864      .   S
    Zr2    O51       2.36737  1_545   S
    N52    O53       1.22875      .   S
    Zr13   O53       2.36763  1_455   S
    N52    O54       1.23992  1_655   S
    Zr21   O54       2.39949      .   S
    N52    O55       1.06522      .   S
    Zr19   O55       2.21010      .   S
    N56    O57       1.26770      .   S
    Zr8    O57       2.48068      .   S
    N56    O58       1.21889      .   S
    Zr0    O58       2.34367      .   S
    N56    O59       1.08499      .   S
    Zr16   O59       2.26527      .   S
    N60    O61       1.22865      .   S
    Zr0    O61       2.36738  1_545   S
    N60    O62       1.06533      .   S
    Zr5    O62       2.21039      .   S
    N60    O63       1.24002  1_565   S
    Zr8    O63       2.39964      .   S
    N64    O65       1.06529      .   S
    Zr7    O65       2.21029      .   S
    N64    O66       1.23997      .   S
    Zr9    O66       2.39954      .   S
    N64    O67       1.22871      .   S
    Zr1    O67       2.36760      .   S
    N68    O69       1.22871      .   S
    Zr0    O69       2.36759      .   S
    N68    O70       1.06529      .   S
    Zr6    O70       2.21030      .   S
    N68    O71       1.23997      .   S
    Zr8    O71       2.39955      .   S
    N72    O73       1.06527      .   S
    Zr6    O73       2.21032      .   S
    N72    O74       1.22864      .   S
    Zr3    O74       2.36737      .   S
    N72    O75       1.23994      .   S
    Zr11   O75       2.39956      .   S
    N76    O77       1.22868      .   S
    Zr3    O77       2.36758  1_655   S
    N76    O78       1.06522      .   S
    Zr5    O78       2.21022      .   S
    N76    O79       1.23990  1_455   S
    Zr11   O79       2.39947      .   S
    N80    O81       1.22874      .   S
    Zr14   O81       2.36761      .   S
    N80    O82       1.06525      .   S
    Zr16   O82       2.21025      .   S
    N80    O83       1.23997      .   S
    Zr22   O83       2.39954      .   S
    N84    O85       1.06533      .   S
    Zr18   O85       2.21036      .   S
    N84    O86       1.22862      .   S
    Zr15   O86       2.36733  1_565   S
    N84    O87       1.24003  1_545   S
    Zr23   O87       2.39957      .   S
    N88    O89       1.21889      .   S
    Zr12   O89       2.34367      .   S
    N88    O90       1.26776      .   S
    Zr20   O90       2.48076      .   S
    N88    O91       1.08513  1_556   S
    Zr4    O91       2.26549      .   S
    N92    O93       1.26776      .   S
    Zr21   O93       2.48077      .   S
    N92    O94       1.21890      .   S
    Zr13   O94       2.34367      .   S
    N92    O95       1.08513  1_556   S
    Zr5    O95       2.26549      .   S
    N96    O97       1.26770      .   S
    Zr10   O97       2.48068      .   S
    N96    O98       1.21889      .   S
    Zr2    O98       2.34367      .   S
    N96    O99       1.08499      .   S
    Zr18   O99       2.26527      .   S
    N100   O101      1.06522      .   S
    Zr4    O101      2.21022      .   S
    N100   O102      1.22868      .   S
    Zr2    O102      2.36758  1_655   S
    N100   O103      1.23990  1_455   S
    Zr10   O103      2.39947      .   S
    N104   O105      1.22862      .   S
    Zr13   O105      2.36733  1_565   S
    N104   O106      1.06533      .   S
    Zr16   O106      2.21036      .   S
    N104   O107      1.24003  1_545   S
    Zr21   O107      2.39957      .   S
    N108   O109      1.08499      .   S
    Zr17   O109      2.26527      .   S
    N108   O110      1.26770      .   S
    Zr9    O110      2.48068      .   S
    N108   O111      1.21889      .   S
    Zr1    O111      2.34367      .   S
    N112   O113      1.23992  1_655   S
    Zr20   O113      2.39948      .   S
    N112   O114      1.06515      .   S
    Zr18   O114      2.21015      .   S
    N112   O115      1.22875      .   S
    Zr12   O115      2.36763  1_455   S
    N116   O117      1.22880      .   S
    Zr15   O117      2.36768      .   S
    N116   O118      1.24000      .   S
    Zr23   O118      2.39957      .   S
    N116   O119      1.06527      .   S
    Zr17   O119      2.21015      .   S
