# CIF file generated by openbabel 2.4.90, see http://openbabel.sf.net
data_I
_chemical_name_common ''
_cell_length_a 17.555
_cell_length_b 17.545
_cell_length_c 15.913
_cell_angle_alpha 90
_cell_angle_beta 89.999
_cell_angle_gamma 92.602
_space_group_name_H-M_alt 'P 1'
_space_group_name_Hall 'P 1'
loop_
    _symmetry_equiv_pos_as_xyz
    x,y,z
loop_
    _atom_site_label
    _atom_site_type_symbol
    _atom_site_fract_x
    _atom_site_fract_y
    _atom_site_fract_z
    _atom_site_occupancy
    Zr0     Zr   0.46494   0.03497   0.32065   1.000
    Zr1     Zr   0.46494   0.53496   0.32065   1.000
    Zr2     Zr   0.96495   0.03497   0.32065   1.000
    Zr3     Zr   0.96495   0.53496   0.32065   1.000
    Zr4     Zr   0.17309   0.32681   0.18737   1.000
    Zr5     Zr   0.17309   0.82680   0.18737   1.000
    Zr6     Zr   0.67310   0.32681   0.18737   1.000
    Zr7     Zr   0.67310   0.82680   0.18737   1.000
    Zr8     Zr   0.32028   0.17969   0.27074   1.000
    Zr9     Zr   0.32028   0.67968   0.27074   1.000
    Zr10    Zr   0.82029   0.17969   0.27074   1.000
    Zr11    Zr   0.82029   0.67968   0.27074   1.000
    Zr12    Zr   0.03507   0.46499   0.82063   1.000
    Zr13    Zr   0.03507   0.96498   0.82063   1.000
    Zr14    Zr   0.53508   0.46499   0.82063   1.000
    Zr15    Zr   0.53508   0.96498   0.82063   1.000
    Zr16    Zr   0.32692   0.17316   0.68737   1.000
    Zr17    Zr   0.32692   0.67315   0.68737   1.000
    Zr18    Zr   0.82693   0.17316   0.68737   1.000
    Zr19    Zr   0.82693   0.67315   0.68737   1.000
    Zr20    Zr   0.17973   0.32028   0.77070   1.000
    Zr21    Zr   0.17973   0.82027   0.77070   1.000
    Zr22    Zr   0.67974   0.32028   0.77070   1.000
    Zr23    Zr   0.67974   0.82027   0.77070   1.000
    N24     N    0.21642   0.52280   0.73044   1.000
    O25     O    0.15429   0.50262   0.76056   1.000
    O26     O    0.25285   0.57108   0.71539   1.000
    O27     O    0.20386   0.45355   0.74250   1.000
    N28     N    0.62649   0.87347   0.99041   1.000
    O29     O    0.64070   0.85924   0.05472   1.000
    O30     O    0.59420   0.90583   0.93375   1.000
    O31     O    0.64348   0.85648   0.91549   1.000
    N32     N    0.71643   0.52280   0.73044   1.000
    O33     O    0.65430   0.50262   0.76056   1.000
    O34     O    0.70387   0.45355   0.74250   1.000
    O35     O    0.75286   0.57108   0.71539   1.000
    N36     N    0.87354   0.62647   0.49044   1.000
    O37     O    0.90583   0.59412   0.43378   1.000
    O38     O    0.85656   0.64347   0.41552   1.000
    O39     O    0.85934   0.64071   0.55474   1.000
    N40     N    0.28359   0.47716   0.23047   1.000
    O41     O    0.29614   0.54642   0.24252   1.000
    O42     O    0.34572   0.49734   0.26058   1.000
    O43     O    0.24716   0.42888   0.21541   1.000
    N44     N    0.62649   0.37348   0.99041   1.000
    O45     O    0.64070   0.35925   0.05472   1.000
    O46     O    0.64347   0.35649   0.91549   1.000
    O47     O    0.59420   0.40584   0.93375   1.000
    N48     N    0.78360   0.97716   0.23047   1.000
    O49     O    0.74717   0.92888   0.21541   1.000
    O50     O    0.79615   0.04642   0.24252   1.000
    O51     O    0.84573   0.99735   0.26058   1.000
    N52     N    0.97734   0.78349   0.73046   1.000
    O53     O    0.99753   0.84566   0.76057   1.000
    O54     O    0.04656   0.79604   0.74252   1.000
    O55     O    0.92904   0.74711   0.71540   1.000
    N56     N    0.37353   0.12648   0.49044   1.000
    O57     O    0.35655   0.14348   0.41552   1.000
    O58     O    0.40582   0.09413   0.43378   1.000
    O59     O    0.35932   0.14072   0.55474   1.000
    N60     N    0.28359   0.97716   0.23047   1.000
    O61     O    0.34572   0.99735   0.26058   1.000
    O62     O    0.24716   0.92888   0.21541   1.000
    O63     O    0.29614   0.04642   0.24252   1.000
    N64     N    0.52268   0.71647   0.23051   1.000
    O65     O    0.57098   0.75285   0.21545   1.000
    O66     O    0.45346   0.70391   0.24257   1.000
    O67     O    0.50249   0.65429   0.26061   1.000
    N68     N    0.52268   0.21647   0.23051   1.000
    O69     O    0.50249   0.15430   0.26061   1.000
    O70     O    0.57098   0.25286   0.21545   1.000
    O71     O    0.45346   0.20392   0.24257   1.000
    N72     N    0.05806   0.94251   0.28649   1.000
    O73     O    0.03478   0.96562   0.29503   1.000
    N74     N    0.78360   0.47716   0.23047   1.000
    O75     O    0.74717   0.42888   0.21541   1.000
    O76     O    0.84573   0.49734   0.26058   1.000
    O77     O    0.79615   0.54642   0.24252   1.000
    N78     N    0.02268   0.71647   0.23051   1.000
    O79     O    0.00249   0.65429   0.26061   1.000
    O80     O    0.07098   0.75285   0.21545   1.000
    O81     O    0.95347   0.70391   0.24257   1.000
    N82     N    0.47734   0.28350   0.73047   1.000
    O83     O    0.49753   0.34567   0.76058   1.000
    O84     O    0.42904   0.24712   0.71542   1.000
    O85     O    0.54656   0.29605   0.74253   1.000
    N86     N    0.71643   0.02280   0.73044   1.000
    O87     O    0.75286   0.07109   0.71539   1.000
    O88     O    0.65430   0.00261   0.76056   1.000
    O89     O    0.70387   0.95354   0.74250   1.000
    N90     N    0.12648   0.37348   0.99041   1.000
    O91     O    0.09419   0.40584   0.93375   1.000
    O92     O    0.14346   0.35649   0.91549   1.000
    O93     O    0.14069   0.35925   0.05472   1.000
    N94     N    0.12648   0.87347   0.99041   1.000
    O95     O    0.14347   0.85648   0.91549   1.000
    O96     O    0.09419   0.90583   0.93375   1.000
    O97     O    0.14069   0.85924   0.05472   1.000
    N98     N    0.87354   0.12648   0.49044   1.000
    O99     O    0.85656   0.14348   0.41552   1.000
    O100    O    0.90583   0.09413   0.43378   1.000
    O101    O    0.85933   0.14072   0.55474   1.000
    N102    N    0.02268   0.21648   0.23051   1.000
    O103    O    0.07098   0.25286   0.21545   1.000
    O104    O    0.00249   0.15430   0.26061   1.000
    O105    O    0.95346   0.20392   0.24257   1.000
    N106    N    0.23090   0.26922   0.62641   1.000
    O107    O    0.25491   0.24521   0.64165   1.000
    N108    N    0.21642   0.02280   0.73044   1.000
    O109    O    0.15429   0.00261   0.76056   1.000
    O110    O    0.25285   0.07109   0.71539   1.000
    O111    O    0.20386   0.95354   0.74250   1.000
    N112    N    0.37353   0.62648   0.49044   1.000
    O113    O    0.35933   0.64071   0.55474   1.000
    O114    O    0.35655   0.64347   0.41552   1.000
    O115    O    0.40582   0.59412   0.43378   1.000
    N116    N    0.97734   0.28350   0.73046   1.000
    O117    O    0.04655   0.29605   0.74252   1.000
    O118    O    0.92904   0.24712   0.71541   1.000
    O119    O    0.99753   0.34567   0.76057   1.000
    N120    N    0.27054   0.22976   0.83784   1.000
    O121    O    0.24784   0.25239   0.82106   1.000
    N122    N    0.44195   0.05745   0.78645   1.000
    O123    O    0.46523   0.03433   0.79500   1.000
    N124    N    0.47734   0.78349   0.73045   1.000
    O125    O    0.49753   0.84566   0.76056   1.000
    O126    O    0.54656   0.79604   0.74252   1.000
    O127    O    0.42904   0.74711   0.71539   1.000
    N128    N    0.26912   0.73075   0.12643   1.000
    O129    O    0.24511   0.75476   0.14167   1.000
    N130    N    0.44195   0.55744   0.78645   1.000
    O131    O    0.46523   0.53433   0.79500   1.000
    N132    N    0.77055   0.72975   0.83784   1.000
    O133    O    0.74785   0.75238   0.82106   1.000
    N134    N    0.73091   0.76921   0.62641   1.000
    O135    O    0.75492   0.74520   0.64165   1.000
    N136    N    0.22947   0.77020   0.33786   1.000
    O137    O    0.25217   0.74757   0.32108   1.000
    N138    N    0.26912   0.23076   0.12643   1.000
    O139    O    0.24511   0.25477   0.14167   1.000
    N140    N    0.23090   0.76921   0.62641   1.000
    O141    O    0.25491   0.74520   0.64165   1.000
    N142    N    0.05806   0.44252   0.28649   1.000
    O143    O    0.03478   0.46563   0.29503   1.000
    N144    N    0.77055   0.22976   0.83784   1.000
    O145    O    0.74785   0.25239   0.82106   1.000
    N146    N    0.76913   0.73075   0.12643   1.000
    O147    O    0.74512   0.75476   0.14167   1.000
    N148    N    0.55807   0.44251   0.28649   1.000
    O149    O    0.53479   0.46563   0.29503   1.000
    N150    N    0.73091   0.26922   0.62641   1.000
    O151    O    0.75491   0.24521   0.64165   1.000
    N152    N    0.76913   0.23076   0.12643   1.000
    O153    O    0.74512   0.25477   0.14167   1.000
    N154    N    0.22946   0.27021   0.33786   1.000
    O155    O    0.25217   0.24758   0.32108   1.000
    N156    N    0.94196   0.05745   0.78645   1.000
    O157    O    0.96524   0.03433   0.79500   1.000
    N158    N    0.94196   0.55744   0.78645   1.000
    O159    O    0.96524   0.53433   0.79500   1.000
    N160    N    0.72947   0.27021   0.33786   1.000
    O161    O    0.75218   0.24758   0.32108   1.000
    N162    N    0.27054   0.72975   0.83784   1.000
    O163    O    0.24784   0.75238   0.82106   1.000
    N164    N    0.55807   0.94251   0.28649   1.000
    O165    O    0.53479   0.96562   0.29503   1.000
    N166    N    0.72948   0.77020   0.33786   1.000
    O167    O    0.75218   0.74757   0.32108   1.000
loop_
    _geom_bond_atom_site_label_1
    _geom_bond_atom_site_label_2
    _geom_bond_distance
    _geom_bond_site_symmetry_2
    _ccdc_geom_bond_type
    N24    O25       1.22862      .   S
    Zr12   O25       2.36733      .   S
    N24    O26       1.06527      .   S
    Zr17   O26       2.21029      .   S
    N24    O27       1.23996      .   S
    Zr20   O27       2.39950      .   S
    N28    O29       1.08513  1_556   S
    Zr7    O29       2.26549      .   S
    N28    O30       1.21889      .   S
    Zr15   O30       2.34367      .   S
    N28    O31       1.26776      .   S
    Zr23   O31       2.48076      .   S
    N32    O33       1.22862      .   S
    Zr14   O33       2.36733      .   S
    N32    O34       1.23996      .   S
    Zr22   O34       2.39950      .   S
    N32    O35       1.06527      .   S
    Zr19   O35       2.21029      .   S
    N36    O37       1.21889      .   S
    Zr3    O37       2.34367      .   S
    N36    O38       1.26770      .   S
    Zr11   O38       2.48068      .   S
    N36    O39       1.08499      .   S
    Zr19   O39       2.26527      .   S
    N40    O41       1.23994      .   S
    Zr9    O41       2.39957      .   S
    N40    O42       1.22864      .   S
    Zr1    O42       2.36736      .   S
    N40    O43       1.06528      .   S
    Zr4    O43       2.21033      .   S
    N44    O45       1.08513  1_556   S
    Zr6    O45       2.26549      .   S
    N44    O46       1.26776      .   S
    Zr22   O46       2.48077      .   S
    N44    O47       1.21890      .   S
    Zr14   O47       2.34367      .   S
    N48    O49       1.06534      .   S
    Zr7    O49       2.21040      .   S
    N48    O50       1.24001  1_565   S
    Zr10   O50       2.39963      .   S
    N48    O51       1.22864      .   S
    Zr2    O51       2.36737  1_545   S
    N52    O53       1.22875      .   S
    Zr13   O53       2.36763  1_455   S
    N52    O54       1.23992  1_655   S
    Zr21   O54       2.39949      .   S
    N52    O55       1.06522      .   S
    Zr19   O55       2.21010      .   S
    N56    O57       1.26770      .   S
    Zr8    O57       2.48068      .   S
    N56    O58       1.21889      .   S
    Zr0    O58       2.34367      .   S
    N56    O59       1.08499      .   S
    Zr16   O59       2.26527      .   S
    N60    O61       1.22865      .   S
    Zr0    O61       2.36738  1_545   S
    N60    O62       1.06533      .   S
    Zr5    O62       2.21039      .   S
    N60    O63       1.24002  1_565   S
    Zr8    O63       2.39964      .   S
    N64    O65       1.06529      .   S
    Zr7    O65       2.21029      .   S
    N64    O66       1.23997      .   S
    Zr9    O66       2.39954      .   S
    N64    O67       1.22871      .   S
    Zr1    O67       2.36760      .   S
    N68    O69       1.22871      .   S
    Zr0    O69       2.36759      .   S
    N68    O70       1.06529      .   S
    Zr6    O70       2.21030      .   S
    N68    O71       1.23997      .   S
    Zr8    O71       2.39955      .   S
    N72    O73       0.60417      .   S
    Zr2    O73       1.81250  1_645   S
    N74    O75       1.06527      .   S
    Zr6    O75       2.21032      .   S
    N74    O76       1.22864      .   S
    Zr3    O76       2.36737      .   S
    N74    O77       1.23994      .   S
    Zr11   O77       2.39956      .   S
    N78    O79       1.22868      .   S
    Zr3    O79       2.36758  1_655   S
    N78    O80       1.06522      .   S
    Zr5    O80       2.21022      .   S
    N78    O81       1.23990  1_455   S
    Zr11   O81       2.39947      .   S
    N82    O83       1.22874      .   S
    Zr14   O83       2.36761      .   S
    N82    O84       1.06525      .   S
    Zr16   O84       2.21025      .   S
    N82    O85       1.23997      .   S
    Zr22   O85       2.39954      .   S
    N86    O87       1.06533      .   S
    Zr18   O87       2.21036      .   S
    N86    O88       1.22862      .   S
    Zr15   O88       2.36733  1_565   S
    N86    O89       1.24003  1_545   S
    Zr23   O89       2.39957      .   S
    N90    O91       1.21889      .   S
    Zr12   O91       2.34367      .   S
    N90    O92       1.26776      .   S
    Zr20   O92       2.48076      .   S
    N90    O93       1.08513  1_556   S
    Zr4    O93       2.26549      .   S
    N94    O95       1.26776      .   S
    Zr21   O95       2.48077      .   S
    N94    O96       1.21890      .   S
    Zr13   O96       2.34367      .   S
    N94    O97       1.08513  1_556   S
    Zr5    O97       2.26549      .   S
    N98    O99       1.26770      .   S
    Zr10   O99       2.48068      .   S
    N98    O100      1.21889      .   S
    Zr2    O100      2.34367      .   S
    N98    O101      1.08499      .   S
    Zr18   O101      2.26527      .   S
    N102   O103      1.06522      .   S
    Zr4    O103      2.21022      .   S
    N102   O104      1.22868      .   S
    Zr2    O104      2.36758  1_655   S
    N102   O105      1.23990  1_455   S
    Zr10   O105      2.39947      .   S
    N106   O107      0.65578      .   S
    Zr16   O107      1.96734      .   S
    N108   O109      1.22862      .   S
    Zr13   O109      2.36733  1_565   S
    N108   O110      1.06533      .   S
    Zr16   O110      2.21036      .   S
    N108   O111      1.24003  1_545   S
    Zr21   O111      2.39957      .   S
    N112   O113      1.08499      .   S
    Zr17   O113      2.26527      .   S
    N112   O114      1.26770      .   S
    Zr9    O114      2.48068      .   S
    N112   O115      1.21889      .   S
    Zr1    O115      2.34367      .   S
    N116   O117      1.23992  1_655   S
    Zr20   O117      2.39948      .   S
    N116   O118      1.06515      .   S
    Zr18   O118      2.21015      .   S
    N116   O119      1.22875      .   S
    Zr12   O119      2.36763  1_455   S
    N120   O121      0.63419      .   S
    Zr20   O121      1.90257      .   S
    N122   O123      0.60424      .   S
    Zr15   O123      1.81272  1_565   S
    N124   O125      1.22880      .   S
    Zr15   O125      2.36768      .   S
    N124   O126      1.24000      .   S
    Zr23   O126      2.39957      .   S
    N124   O127      1.06527      .   S
    Zr17   O127      2.21015      .   S
    N128   O129      0.65576      .   S
    Zr5    O129      1.96729      .   S
    N130   O131      0.60417      .   S
    Zr14   O131      1.81251      .   S
    N132   O133      0.63419      .   S
    Zr23   O133      1.90256      .   S
    N134   O135      0.65578      .   S
    Zr19   O135      1.96734      .   S
    N136   O137      0.63416      .   S
    Zr9    O137      1.90247      .   S
    N138   O139      0.65576      .   S
    Zr4    O139      1.96729      .   S
    N140   O141      0.65578      .   S
    Zr17   O141      1.96735      .   S
    N142   O143      0.60410      .   S
    Zr3    O143      1.81229  1_655   S
    N144   O145      0.63419      .   S
    Zr22   O145      1.90256      .   S
    N146   O147      0.65576      .   S
    Zr7    O147      1.96729      .   S
    N148   O149      0.60416      .   S
    Zr1    O149      1.81248      .   S
    N150   O151      0.65578      .   S
    Zr18   O151      1.96735      .   S
    N152   O153      0.65576      .   S
    Zr6    O153      1.96729      .   S
    N154   O155      0.63415      .   S
    Zr8    O155      1.90246      .   S
    N156   O157      0.60418      .   S
    Zr13   O157      1.81254  1_465   S
    N158   O159      0.60411      .   S
    Zr12   O159      1.81233  1_455   S
    N160   O161      0.63416      .   S
    Zr10   O161      1.90247      .   S
    N162   O163      0.63419      .   S
    Zr21   O163      1.90257      .   S
    N164   O165      0.60423      .   S
    Zr0    O165      1.81269  1_545   S
    N166   O167      0.63415      .   S
    Zr11   O167      1.90246      .   S
