# CIF file generated by openbabel 2.4.90, see http://openbabel.sf.net
data_I
_chemical_name_common ''
_cell_length_a 13.959
_cell_length_b 14.282
_cell_length_c 14.294
_cell_angle_alpha 97.176
_cell_angle_beta 106.298
_cell_angle_gamma 106.781
_space_group_name_H-M_alt 'P 1'
_space_group_name_Hall 'P 1'
loop_
    _symmetry_equiv_pos_as_xyz
    x,y,z
loop_
    _atom_site_label
    _atom_site_type_symbol
    _atom_site_fract_x
    _atom_site_fract_y
    _atom_site_fract_z
    _atom_site_occupancy
    Lv0     Lv   0.25022   0.35824   0.64150   1.000
    Lv1     Lv   0.74587   0.85583   0.63835   1.000
    Lv2     Lv   0.25414   0.14417   0.36164   1.000
    Lv3     Lv   0.74979   0.64176   0.35848   1.000
    Lv4     Lv   0.24555   0.63878   0.85586   1.000
    Lv5     Lv   0.75446   0.36122   0.14413   1.000
