# CIF file generated by openbabel 2.4.90, see http://openbabel.sf.net
data_I
_chemical_name_common ''
_cell_length_a 13.959
_cell_length_b 14.282
_cell_length_c 14.294
_cell_angle_alpha 97.176
_cell_angle_beta 106.298
_cell_angle_gamma 106.781
_space_group_name_H-M_alt 'P 1'
_space_group_name_Hall 'P 1'
loop_
    _symmetry_equiv_pos_as_xyz
    x,y,z
loop_
    _atom_site_label
    _atom_site_type_symbol
    _atom_site_fract_x
    _atom_site_fract_y
    _atom_site_fract_z
    _atom_site_occupancy
    H0      H    0.34912   0.49344   0.58987   1.000
    H1      H    0.51833   0.98286   0.58353   1.000
    H2      H    0.51885   0.47509   0.58200   1.000
    H3      H    0.52907   0.32081   0.27534   1.000
    H4      H    0.56551   0.33623   0.10566   1.000
    H5      H    0.27900   0.20935   0.67877   1.000
    H6      H    0.55073   0.81198   0.59351   1.000
    H7      H    0.45052   0.20109   0.66221   1.000
    H8      H    0.15260   0.40863   0.50590   1.000
    H9      H    0.98110   0.41549   0.01450   1.000
    H10     H    0.98285   0.41705   0.52395   1.000
    H11     H    0.97233   0.72728   0.67939   1.000
    H12     H    0.93491   0.89622   0.66252   1.000
    H13     H    0.22011   0.32236   0.79049   1.000
    H14     H    0.94927   0.40594   0.18583   1.000
    H15     H    0.04865   0.33926   0.79836   1.000
    H16     H    0.65089   0.50655   0.41011   1.000
    H17     H    0.48168   0.01714   0.41646   1.000
    H18     H    0.48115   0.52491   0.41797   1.000
    H19     H    0.47094   0.67918   0.72464   1.000
    H20     H    0.43450   0.66375   0.89432   1.000
    H21     H    0.72102   0.79066   0.32123   1.000
    H22     H    0.44927   0.18801   0.40647   1.000
    H23     H    0.54949   0.79892   0.33779   1.000
    H24     H    0.84740   0.59136   0.49408   1.000
    H25     H    0.01891   0.58451   0.98549   1.000
    H26     H    0.01715   0.58295   0.47603   1.000
    H27     H    0.02768   0.27272   0.32060   1.000
    H28     H    0.06510   0.10378   0.33747   1.000
    H29     H    0.77990   0.67764   0.20950   1.000
    H30     H    0.05074   0.59406   0.81416   1.000
    H31     H    0.95136   0.66075   0.20163   1.000
    C32     C    0.69461   0.33677   0.34262   1.000
    C33     C    0.30009   0.35329   0.63702   1.000
    C34     C    0.72147   0.89402   0.63542   1.000
    C35     C    0.68876   0.05561   0.62419   1.000
    C36     C    0.73022   0.35121   0.18219   1.000
    C37     C    0.36776   0.42727   0.60680   1.000
    C38     C    0.59628   0.97510   0.60325   1.000
    C39     C    0.46217   0.41747   0.60139   1.000
    C40     C    0.60534   0.33003   0.26512   1.000
    C41     C    0.62517   0.33827   0.17468   1.000
    C42     C    0.33004   0.27027   0.65749   1.000
    C43     C    0.61429   0.88350   0.60924   1.000
    C44     C    0.42483   0.26473   0.64825   1.000
    C45     C    0.80677   0.65835   0.66431   1.000
    C46     C    0.20033   0.36281   0.64636   1.000
    C47     C    0.77855   0.36379   0.10554   1.000
    C48     C    0.81076   0.37473   0.94360   1.000
    C49     C    0.77022   0.81800   0.64840   1.000
    C50     C    0.13340   0.39243   0.57212   1.000
    C51     C    0.90331   0.39575   0.02314   1.000
    C52     C    0.03895   0.39806   0.58171   1.000
    C53     C    0.89585   0.73667   0.67025   1.000
    C54     C    0.87547   0.82667   0.66117   1.000
    C55     C    0.16967   0.34318   0.72941   1.000
    C56     C    0.88561   0.39001   0.11495   1.000
    C57     C    0.07490   0.35259   0.73472   1.000
    C58     C    0.30539   0.66322   0.65736   1.000
    C59     C    0.69994   0.64673   0.36300   1.000
    C60     C    0.27854   0.10598   0.36457   1.000
    C61     C    0.31125   0.94439   0.37579   1.000
    C62     C    0.26979   0.64878   0.81779   1.000
    C63     C    0.63223   0.57271   0.39315   1.000
    C64     C    0.40373   0.02490   0.39674   1.000
    C65     C    0.53784   0.58253   0.39859   1.000
    C66     C    0.39467   0.66996   0.73487   1.000
    C67     C    0.37483   0.66172   0.82530   1.000
    C68     C    0.66996   0.72972   0.34248   1.000
    C69     C    0.38572   0.11650   0.39074   1.000
    C70     C    0.57519   0.73528   0.35176   1.000
    C71     C    0.19324   0.34165   0.33568   1.000
    C72     C    0.79966   0.63716   0.35361   1.000
    C73     C    0.22146   0.63620   0.89445   1.000
    C74     C    0.18925   0.62526   0.05638   1.000
    C75     C    0.22979   0.18200   0.35158   1.000
    C76     C    0.86662   0.60759   0.42787   1.000
    C77     C    0.09670   0.60424   0.97685   1.000
    C78     C    0.96105   0.60193   0.41827   1.000
    C79     C    0.10416   0.26332   0.32973   1.000
    C80     C    0.12454   0.17332   0.33882   1.000
    C81     C    0.83035   0.65685   0.27059   1.000
    C82     C    0.11440   0.60999   0.88504   1.000
    C83     C    0.92510   0.64740   0.26526   1.000
    S84     S    0.79919   0.01839   0.65225   1.000
    S85     S    0.80336   0.35139   0.30267   1.000
    S86     S    0.70058   0.34664   0.98195   1.000
    S87     S    0.69754   0.69699   0.64941   1.000
    S88     S    0.20082   0.98161   0.34773   1.000
    S89     S    0.19665   0.64861   0.69732   1.000
    S90     S    0.29943   0.65336   0.01803   1.000
    S91     S    0.30246   0.30301   0.35057   1.000
    N92     N    0.49082   0.33783   0.62178   1.000
    N93     N    0.00965   0.37853   0.66143   1.000
    N94     N    0.50919   0.66216   0.37820   1.000
    N95     N    0.99036   0.62148   0.33856   1.000
loop_
    _geom_bond_atom_site_label_1
    _geom_bond_atom_site_label_2
    _geom_bond_distance
    _geom_bond_site_symmetry_2
    _ccdc_geom_bond_type
    H9     C51       1.08674      .   S
    S90    C74       1.73168      .   S
    S90    C73       1.73899  1_554   S
    C51    C56       1.40967      .   S
    C51    C48       1.38489  1_554   S
    C74    C77       1.38490  1_554   S
    C47    C56       1.39394      .   S
    C47    C36       1.44303      .   S
    C47    S86       1.73898  1_554   S
    H4     C41       1.08882      .   S
    C56    H14       1.09007      .   S
    C41    C36       1.39494      .   S
    C41    C40       1.40771      .   S
    C36    S85       1.73740      .   S
    H31    C83       1.08998      .   S
    H29    C81       1.08954      .   S
    C40    H3        1.08789      .   S
    C40    C32       1.38518      .   S
    C83    C81       1.38940      .   S
    C83    N95       1.34929      .   S
    C81    C72       1.40366      .   S
    S85    C32       1.73411      .   S
    H27    C79       1.08794      .   S
    H21    C68       1.08956      .   S
    C79    C71       1.38508      .   S
    C79    C80       1.40787      .   S
    C71    S91       1.73418      .   S
    H28    C80       1.08886      .   S
    H23    C70       1.09000      .   S
    N95    C78       1.34851      .   S
    C80    C75       1.39494      .   S
    C68    C70       1.38939      .   S
    C68    C59       1.40371      .   S
    S88    C60       1.73896  1_565   S
    S88    C61       1.73170      .   S
    S91    C75       1.73733      .   S
    C75    C60       1.44305      .   S
    C70    N94       1.34927      .   S
    C72    C59       1.47799      .   S
    C72    C76       1.40063      .   S
    C59    C63       1.40080      .   S
    C60    C69       1.39393      .   S
    C61    C64       1.38495  1_565   S
    N94    C65       1.34854      .   S
    C69    C64       1.40990      .   S
    C69    H22       1.09011      .   S
    C63    C65       1.38684      .   S
    C63    H16       1.08780      .   S
    C64    H17       1.08674      .   S
    C65    H18       1.08817      .   S
    C78    C76       1.38682      .   S
    C78    H26       1.08818  1_655   S
    C76    H24       1.08761      .   S
    H8     C50       1.08760      .   S
    H10    C52       1.08818  1_655   S
    C50    C52       1.38683      .   S
    C50    C46       1.40063      .   S
    C52    N93       1.34850      .   S
    H2     C39       1.08816      .   S
    H1     C38       1.08674      .   S
    H0     C37       1.08780      .   S
    H6     C43       1.09012      .   S
    C39    C37       1.38684      .   S
    C39    N92       1.34852      .   S
    C38    C43       1.40989      .   S
    C38    C35       1.38494  1_565   S
    C37    C33       1.40079      .   S
    C43    C34       1.39392      .   S
    N92    C44       1.34927      .   S
    C35    S84       1.73170      .   S
    C34    C49       1.44305      .   S
    C34    S84       1.73897  1_565   S
    C33    C46       1.47798      .   S
    C33    C42       1.40373      .   S
    C46    C55       1.40366      .   S
    C44    C42       1.38941      .   S
    C44    H7        1.08999      .   S
    C49    S87       1.73734      .   S
    C49    C54       1.39494      .   S
    S87    C45       1.73417      .   S
    C58    S89       1.73410      .   S
    C58    C66       1.38519      .   S
    C42    H5        1.08955      .   S
    C54    H12       1.08886      .   S
    C54    C53       1.40787      .   S
    N93    C57       1.34930      .   S
    C45    C53       1.38508      .   S
    C53    H11       1.08793      .   S
    S89    C62       1.73740      .   S
    H19    C66       1.08789      .   S
    C55    C57       1.38940      .   S
    C55    H13       1.08953      .   S
    C57    H15       1.08999      .   S
    C66    C67       1.40771      .   S
    H30    C82       1.09008      .   S
    C62    C67       1.39494      .   S
    C62    C73       1.44302      .   S
    C67    H20       1.08882      .   S
    C82    C73       1.39394      .   S
    C82    C77       1.40967      .   S
    C48    S86       1.73169      .   S
    C77    H25       1.08674      .   S
