# CIF file generated by openbabel 2.4.90, see http://openbabel.sf.net
data_I
_chemical_name_common ''
_cell_length_a 13.959
_cell_length_b 14.282
_cell_length_c 14.294
_cell_angle_alpha 97.176
_cell_angle_beta 106.298
_cell_angle_gamma 106.781
_space_group_name_H-M_alt 'P 1'
_space_group_name_Hall 'P 1'
loop_
    _symmetry_equiv_pos_as_xyz
    x,y,z
loop_
    _atom_site_label
    _atom_site_type_symbol
    _atom_site_fract_x
    _atom_site_fract_y
    _atom_site_fract_z
    _atom_site_occupancy
    C0      C    0.70368   0.16252   0.62620   1.000
    C1      C    0.70739   0.33977   0.44892   1.000
    C2      C    0.79595   0.37282   0.83693   1.000
    C3      C    0.79428   0.55202   0.66216   1.000
    C4      C    0.29633   0.83748   0.37378   1.000
    C5      C    0.29262   0.66024   0.55107   1.000
    C6      C    0.20406   0.62718   0.16305   1.000
    C7      C    0.20573   0.44797   0.33781   1.000
