# CIF file generated by openbabel 2.4.90, see http://openbabel.sf.net
data_I
_chemical_name_common ''
_cell_length_a 13.959
_cell_length_b 14.282
_cell_length_c 14.294
_cell_angle_alpha 97.176
_cell_angle_beta 106.298
_cell_angle_gamma 106.781
_space_group_name_H-M_alt 'P 1'
_space_group_name_Hall 'P 1'
loop_
    _symmetry_equiv_pos_as_xyz
    x,y,z
loop_
    _atom_site_label
    _atom_site_type_symbol
    _atom_site_fract_x
    _atom_site_fract_y
    _atom_site_fract_z
    _atom_site_occupancy
    N0      N    0.25022   0.35824   0.64150   1.000
    N1      N    0.74587   0.85583   0.63835   1.000
    N2      N    0.25414   0.14417   0.36164   1.000
    N3      N    0.74979   0.64176   0.35848   1.000
    N4      N    0.24555   0.63878   0.85586   1.000
    N5      N    0.75446   0.36122   0.14413   1.000
    Zr6     Zr   0.75035   0.35694   0.64346   1.000
    O7      O    0.57903   0.35246   0.63804   1.000
    O8      O    0.76177   0.54372   0.64712   1.000
    O9      O    0.73904   0.35334   0.45670   1.000
    O10     O    0.73570   0.16969   0.63762   1.000
    O11     O    0.76463   0.36222   0.83033   1.000
    O12     O    0.92158   0.36220   0.64755   1.000
    Zr13    Zr   0.24966   0.64306   0.35653   1.000
    O14     O    0.42098   0.64754   0.36194   1.000
    O15     O    0.07843   0.63780   0.35243   1.000
    O16     O    0.26097   0.64666   0.54328   1.000
    O17     O    0.23823   0.45627   0.35286   1.000
    O18     O    0.23538   0.63778   0.16966   1.000
    O19     O    0.26431   0.83030   0.36237   1.000
loop_
    _geom_bond_atom_site_label_1
    _geom_bond_atom_site_label_2
    _geom_bond_distance
    _geom_bond_site_symmetry_2
    _ccdc_geom_bond_type
    Zr6    O7        2.35286      .   S
    N0     O7        4.62831      .   S
    Zr6    O8        2.61905      .   S
    N1     O8        4.54204      .   S
    Zr6    O9        2.62263      .   S
    N5     O9        4.54676      .   S
    Zr6    O10       2.61134      .   S
    N1     O10       4.52682  1_565   S
    Zr6    O11       2.61198      .   S
    N5     O11       4.52900  1_554   S
    Zr6    O12       2.35340      .   S
    N0     O12       4.62893  1_455   S
    Zr13   O14       2.35286      .   S
    N3     O14       4.62832      .   S
    Zr13   O15       2.35340      .   S
    N3     O15       4.62893  1_655   S
    Zr13   O16       2.62263      .   S
    N4     O16       4.54676      .   S
    Zr13   O17       2.61905      .   S
    N2     O17       4.54204      .   S
    Zr13   O18       2.61198      .   S
    N4     O18       4.52900  1_556   S
    Zr13   O19       2.61134      .   S
    N2     O19       4.52681  1_545   S
