# CIF file generated by openbabel 2.4.90, see http://openbabel.sf.net
data_I
_chemical_name_common ''
_cell_length_a 15.135
_cell_length_b 14.352
_cell_length_c 21.106
_cell_angle_alpha 89.952
_cell_angle_beta 90.003
_cell_angle_gamma 90.053
_space_group_name_H-M_alt 'P 1'
_space_group_name_Hall 'P 1'
loop_
    _symmetry_equiv_pos_as_xyz
    x,y,z
loop_
    _atom_site_label
    _atom_site_type_symbol
    _atom_site_fract_x
    _atom_site_fract_y
    _atom_site_fract_z
    _atom_site_occupancy
    H0      H    0.08408   0.47070   0.38600   1.000
    H1      H    0.58406   0.47072   0.38607   1.000
    H2      H    0.08387   0.72028   0.48547   1.000
    H3      H    0.58386   0.72027   0.48549   1.000
    H4      H    0.08442   0.52965   0.61418   1.000
    H5      H    0.58441   0.52961   0.61418   1.000
    H6      H    0.08509   0.27986   0.51496   1.000
    H7      H    0.58507   0.27986   0.51491   1.000
    H8      H    0.41592   0.96870   0.11372   1.000
    H9      H    0.91592   0.96889   0.11367   1.000
    H10     H    0.41533   0.22018   0.01619   1.000
    H11     H    0.91534   0.22031   0.01600   1.000
    H12     H    0.41497   0.03081   0.88653   1.000
    H13     H    0.91498   0.03084   0.88654   1.000
    H14     H    0.41550   0.77952   0.98423   1.000
    H15     H    0.91545   0.77951   0.98419   1.000
    H16     H    0.41592   0.52929   0.61394   1.000
    H17     H    0.91589   0.52932   0.61393   1.000
    H18     H    0.41611   0.27975   0.51451   1.000
    H19     H    0.91610   0.27974   0.51456   1.000
    H20     H    0.41556   0.47039   0.38582   1.000
    H21     H    0.91555   0.47038   0.38583   1.000
    H22     H    0.41490   0.72015   0.48509   1.000
    H23     H    0.91488   0.72016   0.48506   1.000
    H24     H    0.08346   0.03129   0.88624   1.000
    H25     H    0.58342   0.03129   0.88621   1.000
    H26     H    0.08446   0.77990   0.98384   1.000
    H27     H    0.58448   0.77994   0.98387   1.000
    H28     H    0.08440   0.96921   0.11350   1.000
    H29     H    0.58437   0.96904   0.11360   1.000
    H30     H    0.08433   0.22041   0.01574   1.000
    H31     H    0.58433   0.22029   0.01588   1.000
    H32     H    0.24872   0.66297   0.09269   1.000
    H33     H    0.74874   0.66297   0.09267   1.000
    H34     H    0.24971   0.93461   0.18010   1.000
    H35     H    0.74970   0.93461   0.18000   1.000
    H36     H    0.25047   0.85969   0.28600   1.000
    H37     H    0.75045   0.85969   0.28603   1.000
    H38     H    0.25080   0.33699   0.90733   1.000
    H39     H    0.75024   0.33704   0.90734   1.000
    H40     H    0.25015   0.06538   0.81989   1.000
    H41     H    0.75002   0.06539   0.81990   1.000
    H42     H    0.24960   0.14033   0.71395   1.000
    H43     H    0.74968   0.14030   0.71399   1.000
    H44     H    0.24993   0.16388   0.40748   1.000
    H45     H    0.74996   0.16388   0.40740   1.000
    H46     H    0.24971   0.43455   0.31845   1.000
    H47     H    0.74968   0.43454   0.31844   1.000
    H48     H    0.25006   0.35848   0.21291   1.000
    H49     H    0.75007   0.35846   0.21290   1.000
    H50     H    0.25006   0.83613   0.59253   1.000
    H51     H    0.74996   0.83613   0.59253   1.000
    H52     H    0.25032   0.56546   0.68156   1.000
    H53     H    0.75028   0.56547   0.68157   1.000
    H54     H    0.24998   0.64154   0.78711   1.000
    H55     H    0.74992   0.64155   0.78711   1.000
    C56     C    0.04572   0.52579   0.40857   1.000
    C57     C    0.54570   0.52580   0.40857   1.000
    C58     C    0.04548   0.66448   0.46360   1.000
    C59     C    0.54547   0.66447   0.46368   1.000
    C60     C    0.04633   0.47439   0.59157   1.000
    C61     C    0.54632   0.47436   0.59156   1.000
    C62     C    0.04656   0.33566   0.53654   1.000
    C63     C    0.54654   0.33565   0.53650   1.000
    C64     C    0.45402   0.02436   0.09152   1.000
    C65     C    0.95401   0.02452   0.09144   1.000
    C66     C    0.45385   0.16402   0.03743   1.000
    C67     C    0.95384   0.16414   0.03730   1.000
    C68     C    0.45337   0.97538   0.90865   1.000
    C69     C    0.95337   0.97540   0.90865   1.000
    C70     C    0.45378   0.83579   0.96283   1.000
    C71     C    0.95375   0.83578   0.96200   1.000
    C72     C    0.45427   0.47421   0.59144   1.000
    C73     C    0.95425   0.47424   0.59144   1.000
    C74     C    0.45450   0.33554   0.53632   1.000
    C75     C    0.95449   0.33554   0.53635   1.000
    C76     C    0.45365   0.52564   0.40845   1.000
    C77     C    0.95364   0.52563   0.40845   1.000
    C78     C    0.45343   0.66435   0.46350   1.000
    C79     C    0.95341   0.66436   0.46348   1.000
    C80     C    0.04545   0.97561   0.90849   1.000
    C81     C    0.54542   0.97562   0.90849   1.000
    C82     C    0.04582   0.83597   0.96260   1.000
    C83     C    0.54582   0.83599   0.96263   1.000
    C84     C    0.04609   0.02467   0.09135   1.000
    C85     C    0.54607   0.02450   0.09143   1.000
    C86     C    0.04592   0.16424   0.03716   1.000
    C87     C    0.54590   0.16412   0.03728   1.000
    C88     C    0.25010   0.71996   0.25050   1.000
    C89     C    0.75009   0.71996   0.25040   1.000
    C90     C    0.24964   0.66618   0.19503   1.000
    C91     C    0.74963   0.66617   0.19501   1.000
    O92     O    0.82261   0.02365   0.30541   1.000
    C93     C    0.24913   0.70603   0.13512   1.000
    C94     C    0.74914   0.70602   0.13511   1.000
    C95     C    0.24919   0.80341   0.12917   1.000
    C96     C    0.74920   0.80340   0.12916   1.000
    C97     C    0.24970   0.85892   0.18382   1.000
    C98     C    0.74970   0.85892   0.18380   1.000
    C99     C    0.25014   0.81713   0.24343   1.000
    C100    C    0.75013   0.81713   0.24341   1.000
    C101    C    0.24990   0.28005   0.74951   1.000
    C102    C    0.74985   0.28004   0.74953   1.000
    C103    C    0.25027   0.33382   0.80499   1.000
    C104    C    0.75006   0.33382   0.80500   1.000
    C105    C    0.25053   0.29396   0.86489   1.000
    C106    C    0.75014   0.29398   0.86491   1.000
    C107    C    0.25041   0.19657   0.87083   1.000
    C108    C    0.75004   0.19660   0.87086   1.000
    C109    C    0.25014   0.14107   0.81618   1.000
    C110    C    0.74998   0.14108   0.81620   1.000
    C111    C    0.24986   0.18287   0.75657   1.000
    C112    C    0.74980   0.18287   0.75661   1.000
    C113    C    0.24988   0.21913   0.24930   1.000
    C114    C    0.74993   0.21912   0.24931   1.000
    C115    C    0.24974   0.16597   0.30512   1.000
    C116    C    0.74980   0.16596   0.30512   1.000
    C117    C    0.24985   0.20647   0.36478   1.000
    C118    C    0.74987   0.20646   0.36478   1.000
    C119    C    0.24983   0.30388   0.37009   1.000
    C120    C    0.74984   0.30388   0.37009   1.000
    C121    C    0.24978   0.35882   0.31510   1.000
    C122    C    0.74977   0.35881   0.31511   1.000
    C123    C    0.24992   0.31639   0.25578   1.000
    C124    C    0.74995   0.31638   0.25578   1.000
    C125    C    0.25015   0.78088   0.75070   1.000
    C126    C    0.75007   0.78090   0.75070   1.000
    C127    C    0.25027   0.83405   0.69400   1.000
    C128    C    0.75018   0.83405   0.69489   1.000
    C129    C    0.25016   0.79355   0.63520   1.000
    C130    C    0.75007   0.79355   0.63523   1.000
    C131    C    0.25018   0.69613   0.62992   1.000
    C132    C    0.75011   0.69613   0.62992   1.000
    C133    C    0.25025   0.64119   0.68490   1.000
    C134    C    0.75019   0.64120   0.68491   1.000
    C135    C    0.25011   0.68362   0.74423   1.000
    C136    C    0.75005   0.68364   0.74420   1.000
    N137    N    0.09122   0.59465   0.43681   1.000
    N138    N    0.59121   0.59465   0.43681   1.000
    N139    N    0.09208   0.40564   0.56350   1.000
    N140    N    0.59207   0.40562   0.56349   1.000
    N141    N    0.40830   0.09359   0.06390   1.000
    N142    N    0.90828   0.09373   0.06380   1.000
    N143    N    0.40795   0.90601   0.93646   1.000
    N144    N    0.90793   0.90603   0.93644   1.000
    N145    N    0.40876   0.40536   0.56319   1.000
    N146    N    0.90875   0.40538   0.56320   1.000
    N147    N    0.40790   0.59438   0.43650   1.000
    N148    N    0.90789   0.59438   0.43650   1.000
    N149    N    0.09127   0.90645   0.93609   1.000
    N150    N    0.59126   0.90648   0.93610   1.000
    N151    N    0.09163   0.09396   0.06357   1.000
    N152    N    0.59160   0.09382   0.06360   1.000
    N153    N    0.24980   0.56300   0.19687   1.000
    N154    N    0.74981   0.56300   0.19686   1.000
    N155    N    0.25011   0.43700   0.80315   1.000
    N156    N    0.75003   0.43700   0.80315   1.000
    N157    N    0.24963   0.06280   0.30402   1.000
    N158    N    0.74969   0.06279   0.30403   1.000
    N159    N    0.25038   0.93722   0.69599   1.000
    N160    N    0.75026   0.93722   0.69598   1.000
    O161    O    0.32282   0.52401   0.19710   1.000
    O162    O    0.82282   0.52401   0.19710   1.000
    O163    O    0.32294   0.47634   0.80564   1.000
    O164    O    0.82287   0.47631   0.80563   1.000
    O165    O    0.17666   0.02366   0.30550   1.000
    O166    O    0.67673   0.02364   0.30559   1.000
    O167    O    0.17746   0.97637   0.69459   1.000
    O168    O    0.67733   0.97636   0.69459   1.000
    O169    O    0.17712   0.47602   0.80290   1.000
    O170    O    0.67705   0.47606   0.80290   1.000
    O171    O    0.17699   0.52363   0.19438   1.000
    O172    O    0.67700   0.52363   0.19437   1.000
    O173    O    0.32335   0.97636   0.69443   1.000
    O174    O    0.82322   0.97638   0.69442   1.000
    O175    O    0.32255   0.02364   0.30540   1.000
loop_
    _geom_bond_atom_site_label_1
    _geom_bond_atom_site_label_2
    _geom_bond_distance
    _geom_bond_site_symmetry_2
    _ccdc_geom_bond_type
    H30    C86       1.09120      .   S
    H31    C87       1.09118      .   S
    H11    C67       1.09173      .   S
    H10    C66       1.09118      .   S
    C86    C67       1.39359  1_455   S
    C86    N151      1.34432      .   S
    C87    C66       1.39306      .   S
    C87    N152      1.34368      .   S
    C67    N142      1.34438      .   S
    C66    N141      1.34435      .   S
    N151   C84       1.34372      .   S
    N152   C85       1.34439      .   S
    N142   C65       1.34390      .   S
    N141   C64       1.34381      .   S
    C84    C65       1.39366  1_455   S
    C84    H28       1.09017  1_545   S
    C85    C64       1.39316      .   S
    C85    H29       1.09042  1_545   S
    C65    H9        1.09025  1_545   S
    C64    H8        1.09025  1_545   S
    H33    C94       1.08860      .   S
    H32    C93       1.08844      .   S
    C96    C94       1.40315      .   S
    C96    C98       1.40225      .   S
    C95    C93       1.40317      .   S
    C95    C97       1.40241      .   S
    C94    C91       1.38717      .   S
    C93    C90       1.38737      .   S
    H35    C98       1.08918      .   S
    H34    C97       1.08904      .   S
    C98    C100      1.39330      .   S
    C97    C99       1.39332      .   S
    O172   N154      1.23915      .   S
    O171   N153      1.23913      .   S
    C91    N154      1.48123      .   S
    C91    C89       1.40146      .   S
    C90    N153      1.48123      .   S
    C90    C88       1.40286      .   S
    N154   O162      1.23910      .   S
    N153   O161      1.23911      .   S
    H49    C124      1.08762      .   S
    H48    C123      1.08748      .   S
    C100   C89       1.40231      .   S
    C100   H37       1.08773      .   S
    C99    C88       1.40249      .   S
    C99    H36       1.08686      .   S
    C113   C123      1.40267      .   S
    C113   C115      1.40311      .   S
    C114   C124      1.40267      .   S
    C114   C116      1.40287      .   S
    C123   C121      1.39271      .   S
    C124   C122      1.39295      .   S
    N157   C115      1.48088      .   S
    N157   O175      1.23925      .   S
    N157   O165      1.23896      .   S
    N158   C116      1.48088      .   S
    N158   O92       1.23925      .   S
    N158   O166      1.23897      .   S
    C115   C117      1.38732      .   S
    C116   C118      1.38735      .   S
    C121   H46       1.08921      .   S
    C121   C119      1.40257      .   S
    C122   H47       1.08919      .   S
    C122   C120      1.40233      .   S
    C117   C119      1.40272      .   S
    C117   H44       1.08850      .   S
    C118   C120      1.40274      .   S
    C118   H45       1.08707      .   S
    H20    C76       1.09041      .   S
    H21    C77       1.09037      .   S
    H0     C56       1.09110      .   S
    H1     C57       1.09037      .   S
    C77    C56       1.39371  1_655   S
    C77    N148      1.34379      .   S
    C76    C57       1.39324      .   S
    C76    N147      1.34368      .   S
    C56    N137      1.34381      .   S
    C57    N138      1.34375      .   S
    N148   C79       1.34433      .   S
    N147   C78       1.34446      .   S
    N138   C59       1.34437      .   S
    N137   C58       1.34376      .   S
    C79    C58       1.39348  1_655   S
    C79    H23       1.09106      .   S
    C78    C59       1.39303      .   S
    C78    H22       1.09107      .   S
    C58    H2        1.09168      .   S
    C59    H3        1.09108      .   S
    H18    C74       1.09110      .   S
    H19    C75       1.09103      .   S
    H7     C63       1.09103      .   S
    H6     C62       1.09103      .   S
    C74    C63       1.39303      .   S
    C74    N145      1.34435      .   S
    C75    C62       1.39348  1_655   S
    C75    N146      1.34431      .   S
    C63    N140      1.34434      .   S
    C62    N139      1.34422      .   S
    N145   C72       1.34383      .   S
    N146   C73       1.34384      .   S
    N140   C61       1.34386      .   S
    N139   C60       1.34396      .   S
    C72    C61       1.39324      .   S
    C72    H16       1.09035      .   S
    C73    C60       1.39371  1_655   S
    C73    H17       1.09032      .   S
    C61    H5        1.09034      .   S
    C60    H4        1.09035      .   S
    H50    C129      1.08797      .   S
    H51    C130      1.08847      .   S
    C131   C129      1.40267      .   S
    C131   C133      1.40239      .   S
    C132   C130      1.40274      .   S
    C132   C134      1.40250      .   S
    C129   C127      1.37086      .   S
    C130   C128      1.38736      .   S
    H52    C133      1.08921      .   S
    H53    C134      1.08921      .   S
    C133   C135      1.39291      .   S
    C134   C136      1.39220      .   S
    C127   N159      1.48133      .   S
    C127   C125      1.41873      .   S
    O174   N160      1.23900      .   S
    O173   N159      1.23900      .   S
    O168   N160      1.23923      .   S
    O167   N159      1.23925      .   S
    C128   N160      1.48088      .   S
    C128   C126      1.40286      .   S
    H42    C111      1.08762      .   S
    H43    C112      1.08778      .   S
    C136   C126      1.40273      .   S
    C136   H55       1.08816      .   S
    C135   C125      1.40265      .   S
    C135   H54       1.08765      .   S
    C101   C111      1.40250      .   S
    C101   C103      1.40296      .   S
    C102   C112      1.40251      .   S
    C102   C104      1.40287      .   S
    C111   C109      1.39338      .   S
    C112   C110      1.39289      .   S
    O169   N155      1.23909      .   S
    O170   N156      1.23909      .   S
    N155   C103      1.48125      .   S
    N155   O163      1.23916      .   S
    N156   C104      1.48126      .   S
    N156   O164      1.23915      .   S
    C103   C105      1.38725      .   S
    C104   C106      1.38732      .   S
    C109   H40       1.08906      .   S
    C109   C107      1.40231      .   S
    C110   H41       1.08903      .   S
    C110   C108      1.40259      .   S
    C105   C107      1.40316      .   S
    C105   H38       1.08849      .   S
    C106   C108      1.40315      .   S
    C106   H39       1.08847      .   S
    H25    C81       1.09037  1_545   S
    H24    C80       1.09027  1_545   S
    H12    C68       1.09027  1_545   S
    H13    C69       1.09034  1_545   S
    C80    C69       1.39365  1_455   S
    C80    N149      1.34381      .   S
    C81    C68       1.39317      .   S
    C81    N150      1.34377      .   S
    C69    N144      1.34387      .   S
    C68    N143      1.34389      .   S
    N149   C82       1.34437      .   S
    N150   C83       1.34440      .   S
    N144   C71       1.33745      .   S
    N143   C70       1.34430      .   S
    C71    C82       1.39360  1_655   S
    C71    H15       1.09819      .   S
    C82    H26       1.09120      .   S
    C83    C70       1.39309      .   S
    C83    H27       1.09115      .   S
    C70    H14       1.09109      .   S
