# CIF file generated by openbabel 2.4.90, see http://openbabel.sf.net
data_I
_chemical_name_common ''
_cell_length_a 15.135
_cell_length_b 14.352
_cell_length_c 21.106
_cell_angle_alpha 89.952
_cell_angle_beta 90.003
_cell_angle_gamma 90.053
_space_group_name_H-M_alt 'P 1'
_space_group_name_Hall 'P 1'
loop_
    _symmetry_equiv_pos_as_xyz
    x,y,z
loop_
    _atom_site_label
    _atom_site_type_symbol
    _atom_site_fract_x
    _atom_site_fract_y
    _atom_site_fract_z
    _atom_site_occupancy
    C0      C    0.25011   0.67889   0.31600   1.000
    C1      C    0.75010   0.67889   0.31602   1.000
    C2      C    0.24874   0.84479   0.06399   1.000
    C3      C    0.74875   0.84478   0.06397   1.000
    C4      C    0.24988   0.32113   0.68398   1.000
    C5      C    0.74992   0.32111   0.68399   1.000
    C6      C    0.25044   0.15518   0.93601   1.000
    C7      C    0.74996   0.15523   0.93605   1.000
    C8      C    0.25003   0.17745   0.18400   1.000
    C9      C    0.75008   0.17742   0.18401   1.000
    C10     C    0.24991   0.34630   0.43492   1.000
    C11     C    0.74991   0.34630   0.43492   1.000
    C12     C    0.24996   0.82256   0.81601   1.000
    C13     C    0.74989   0.82260   0.81600   1.000
    C14     C    0.25008   0.65372   0.56509   1.000
    C15     C    0.75005   0.65371   0.56509   1.000
