# CIF file generated by openbabel 2.4.90, see http://openbabel.sf.net
data_I
_chemical_name_common ''
_cell_length_a 15.135
_cell_length_b 14.352
_cell_length_c 21.106
_cell_angle_alpha 89.952
_cell_angle_beta 90.003
_cell_angle_gamma 90.053
_space_group_name_H-M_alt 'P 1'
_space_group_name_Hall 'P 1'
loop_
    _symmetry_equiv_pos_as_xyz
    x,y,z
loop_
    _atom_site_label
    _atom_site_type_symbol
    _atom_site_fract_x
    _atom_site_fract_y
    _atom_site_fract_z
    _atom_site_occupancy
    Zr0     Zr   0.24959   0.60229   0.43405   1.000
    Zr1     Zr   0.74958   0.60229   0.43404   1.000
    Zr2     Zr   0.25039   0.39773   0.56596   1.000
    Zr3     Zr   0.75039   0.39771   0.56597   1.000
    Zr4     Zr   0.25001   0.10121   0.06592   1.000
    Zr5     Zr   0.74994   0.10120   0.06593   1.000
    Zr6     Zr   0.24957   0.89879   0.93409   1.000
    Zr7     Zr   0.74956   0.89884   0.93408   1.000
    Zr8     Zr   0.25011   0.67889   0.31600   1.000
    Zr9     Zr   0.75010   0.67889   0.31602   1.000
    Zr10    Zr   0.24874   0.84479   0.06399   1.000
    Zr11    Zr   0.74875   0.84478   0.06397   1.000
    Zr12    Zr   0.24988   0.32113   0.68398   1.000
    Zr13    Zr   0.74992   0.32111   0.68399   1.000
    Zr14    Zr   0.25044   0.15518   0.93601   1.000
    Zr15    Zr   0.74996   0.15523   0.93605   1.000
    Zr16    Zr   0.25003   0.17745   0.18400   1.000
    Zr17    Zr   0.75008   0.17742   0.18401   1.000
    Zr18    Zr   0.24991   0.34630   0.43492   1.000
    Zr19    Zr   0.74991   0.34630   0.43492   1.000
    Zr20    Zr   0.24996   0.82256   0.81601   1.000
    Zr21    Zr   0.74989   0.82260   0.81600   1.000
    Zr22    Zr   0.25008   0.65372   0.56509   1.000
    Zr23    Zr   0.75005   0.65371   0.56509   1.000
    Zr24    Zr   0.24804   0.59005   0.32201   1.000
    Zr25    Zr   0.74802   0.59005   0.32200   1.000
    Zr26    Zr   0.25198   0.73387   0.36302   1.000
    Zr27    Zr   0.75196   0.73388   0.36301   1.000
    Zr28    Zr   0.24859   0.93334   0.05621   1.000
    Zr29    Zr   0.74862   0.93334   0.05620   1.000
    Zr30    Zr   0.24852   0.78926   0.01689   1.000
    Zr31    Zr   0.74851   0.78925   0.01688   1.000
    Zr32    Zr   0.25195   0.40997   0.67800   1.000
    Zr33    Zr   0.75194   0.40995   0.67801   1.000
    Zr34    Zr   0.24804   0.26615   0.63699   1.000
    Zr35    Zr   0.74806   0.26612   0.63700   1.000
    Zr36    Zr   0.25163   0.06664   0.94380   1.000
    Zr37    Zr   0.75172   0.06670   0.94385   1.000
    Zr38    Zr   0.24928   0.21071   0.98309   1.000
    Zr39    Zr   0.74834   0.21076   0.98313   1.000
    Zr40    Zr   0.24838   0.08862   0.17834   1.000
    Zr41    Zr   0.74842   0.08858   0.17836   1.000
    Zr42    Zr   0.25173   0.23214   0.13677   1.000
    Zr43    Zr   0.75181   0.23210   0.13677   1.000
    Zr44    Zr   0.24819   0.43478   0.44172   1.000
    Zr45    Zr   0.74817   0.43478   0.44172   1.000
    Zr46    Zr   0.25157   0.29133   0.48246   1.000
    Zr47    Zr   0.75156   0.29133   0.48240   1.000
    Zr48    Zr   0.25151   0.91140   0.82166   1.000
    Zr49    Zr   0.75145   0.91144   0.82165   1.000
    Zr50    Zr   0.24827   0.76788   0.86324   1.000
    Zr51    Zr   0.74823   0.76792   0.86324   1.000
    Zr52    Zr   0.25180   0.56524   0.55829   1.000
    Zr53    Zr   0.75178   0.56523   0.55830   1.000
    Zr54    Zr   0.24841   0.70869   0.51756   1.000
    Zr55    Zr   0.74839   0.70868   0.51750   1.000
    O56     O    0.74863   0.81702   0.04042   1.000
    O57     O    0.74903   0.84404   0.97548   1.000
    O58     O    0.24863   0.81702   0.04044   1.000
    O59     O    0.24904   0.84402   0.97549   1.000
    O60     O    0.74868   0.88906   0.06008   1.000
    O61     O    0.74928   0.01727   0.06106   1.000
    O62     O    0.24867   0.88906   0.06010   1.000
    O63     O    0.24930   0.01728   0.06107   1.000
    O64     O    0.25087   0.16668   0.10135   1.000
    O65     O    0.24920   0.09492   0.12213   1.000
    O66     O    0.24965   0.15596   0.02450   1.000
    O67     O    0.75087   0.16665   0.10135   1.000
    O68     O    0.74918   0.09489   0.12214   1.000
    O69     O    0.74914   0.15598   0.02453   1.000
    O70     O    0.75095   0.20476   0.16039   1.000
    O71     O    0.25088   0.20480   0.16038   1.000
    O72     O    0.24921   0.13303   0.18117   1.000
    O73     O    0.74925   0.13300   0.18118   1.000
    O74     O    0.24908   0.63447   0.31900   1.000
    O75     O    0.25105   0.70638   0.33951   1.000
    O76     O    0.74906   0.63447   0.31901   1.000
    O77     O    0.75103   0.70638   0.33952   1.000
    O78     O    0.74880   0.59617   0.37802   1.000
    O79     O    0.24882   0.59617   0.37803   1.000
    O80     O    0.75077   0.66808   0.39853   1.000
    O81     O    0.25078   0.66808   0.39854   1.000
    O82     O    0.74887   0.51854   0.43788   1.000
    O83     O    0.74898   0.65548   0.47577   1.000
    O84     O    0.24889   0.51854   0.43788   1.000
    O85     O    0.24900   0.65549   0.47581   1.000
    O86     O    0.74904   0.39054   0.43832   1.000
    O87     O    0.75074   0.31881   0.45866   1.000
    O88     O    0.24905   0.39054   0.43832   1.000
    O89     O    0.25074   0.31881   0.45869   1.000
    O90     O    0.75097   0.34452   0.52419   1.000
    O91     O    0.25098   0.34453   0.52421   1.000
    O92     O    0.74922   0.68119   0.54129   1.000
    O93     O    0.24925   0.68121   0.54133   1.000
    O94     O    0.25094   0.60948   0.56169   1.000
    O95     O    0.25110   0.48148   0.56212   1.000
    O96     O    0.75091   0.60947   0.56169   1.000
    O97     O    0.75108   0.48147   0.56214   1.000
    O98     O    0.24921   0.33194   0.60147   1.000
    O99     O    0.25117   0.40385   0.62198   1.000
    O100    O    0.74922   0.33192   0.60148   1.000
    O101    O    0.75116   0.40383   0.62199   1.000
    O102    O    0.24896   0.29364   0.66048   1.000
    O103    O    0.74899   0.29362   0.66049   1.000
    O104    O    0.25092   0.36555   0.68099   1.000
    O105    O    0.75093   0.36553   0.68100   1.000
    O106    O    0.75067   0.86702   0.81882   1.000
    O107    O    0.74906   0.79526   0.83962   1.000
    O108    O    0.25073   0.86698   0.81883   1.000
    O109    O    0.24911   0.79522   0.83962   1.000
    O110    O    0.75050   0.90514   0.87786   1.000
    O111    O    0.25054   0.90509   0.87787   1.000
    O112    O    0.74890   0.83338   0.89866   1.000
    O113    O    0.24892   0.83333   0.89866   1.000
    O114    O    0.75064   0.98277   0.93896   1.000
    O115    O    0.25060   0.98272   0.93894   1.000
    O116    O    0.25104   0.11091   0.93990   1.000
    O117    O    0.24986   0.18295   0.95955   1.000
    O118    O    0.75084   0.11097   0.93995   1.000
    O119    O    0.74915   0.18300   0.95959   1.000
    N120    N    0.49997   0.09426   0.06445   1.000
    O121    O    0.41456   0.09583   0.06468   1.000
    O122    O    0.58537   0.09589   0.06461   1.000
    N123    N    0.49958   0.59508   0.43600   1.000
    O124    O    0.41416   0.59671   0.43564   1.000
    O125    O    0.58498   0.59678   0.43571   1.000
    N126    N    0.74983   0.21980   0.30950   1.000
    O127    O    0.74992   0.20903   0.26308   1.000
    O128    O    0.74985   0.27244   0.35600   1.000
    N129    N    0.75014   0.78022   0.69050   1.000
    O130    O    0.75006   0.79098   0.73693   1.000
    O131    O    0.75011   0.72757   0.64400   1.000
    N132    N    0.99957   0.59508   0.43598   1.000
    O133    O    0.91415   0.59671   0.43562   1.000
    O134    O    0.08499   0.59677   0.43570   1.000
    N135    N    0.74970   0.71996   0.19033   1.000
    O136    O    0.74934   0.77203   0.14345   1.000
    O137    O    0.74990   0.70969   0.23677   1.000
    N138    N    0.00040   0.40494   0.56402   1.000
    O139    O    0.91498   0.40324   0.56430   1.000
    O140    O    0.08582   0.40331   0.56438   1.000
    N141    N    0.49960   0.90568   0.93560   1.000
    O142    O    0.41418   0.90404   0.93544   1.000
    O143    O    0.58500   0.90417   0.93534   1.000
    N144    N    0.99998   0.09441   0.06435   1.000
    O145    O    0.08540   0.09600   0.06455   1.000
    O146    O    0.91455   0.09593   0.06461   1.000
    N147    N    0.50040   0.40493   0.56400   1.000
    O148    O    0.41499   0.40324   0.56429   1.000
    O149    O    0.58581   0.40330   0.56437   1.000
    N150    N    0.24970   0.71996   0.19035   1.000
    O151    O    0.24933   0.77203   0.14347   1.000
    O152    O    0.24990   0.70969   0.23680   1.000
    N153    N    0.99959   0.90568   0.93551   1.000
    O154    O    0.91417   0.90405   0.93538   1.000
    O155    O    0.08501   0.90415   0.93530   1.000
    N156    N    0.24979   0.21981   0.30949   1.000
    O157    O    0.24983   0.27245   0.35600   1.000
    O158    O    0.24988   0.20905   0.26307   1.000
    N159    N    0.25022   0.78021   0.69043   1.000
    O160    O    0.25018   0.72757   0.64397   1.000
    O161    O    0.25014   0.79096   0.73689   1.000
    N162    N    0.25015   0.28003   0.80965   1.000
    O163    O    0.25029   0.22795   0.85654   1.000
    O164    O    0.25002   0.29031   0.76320   1.000
    N165    N    0.74998   0.28004   0.80967   1.000
    O166    O    0.74999   0.22798   0.85656   1.000
    O167    O    0.74993   0.29031   0.76321   1.000
loop_
    _geom_bond_atom_site_label_1
    _geom_bond_atom_site_label_2
    _geom_bond_distance
    _geom_bond_site_symmetry_2
    _ccdc_geom_bond_type
    Zr31   O56       0.63723      .   S
    Zr11   O56       0.63723      .   S
    Zr31   O57       1.17506  1_554   S
    Zr7    O57       1.17506      .   S
    Zr30   O58       0.63733      .   S
    Zr10   O58       0.63733      .   S
    Zr30   O59       1.17482  1_554   S
    Zr6    O59       1.17482      .   S
    Zr29   O60       0.64065      .   S
    Zr11   O60       0.64065      .   S
    Zr29   O61       1.20906  1_565   S
    Zr5    O61       1.20906      .   S
    Zr28   O62       0.64066      .   S
    Zr10   O62       0.64066      .   S
    Zr28   O63       1.20915  1_565   S
    Zr4    O63       1.20915      .   S
    Zr4    O64       1.20128      .   S
    Zr42   O64       1.20128      .   S
    Zr4    O65       1.18980      .   S
    Zr40   O65       1.18980      .   S
    Zr4    O66       1.17487      .   S
    Zr38   O66       1.17487  1_556   S
    Zr5    O67       1.20108      .   S
    Zr43   O67       1.20108      .   S
    Zr5    O68       1.18990      .   S
    Zr41   O68       1.18990      .   S
    Zr5    O69       1.17503      .   S
    Zr39   O69       1.17503  1_556   S
    Zr43   O70       0.63427      .   S
    Zr17   O70       0.63427      .   S
    Zr42   O71       0.63424      .   S
    Zr16   O71       0.63424      .   S
    Zr40   O72       0.64046      .   S
    Zr16   O72       0.64046      .   S
    Zr41   O73       0.64045      .   S
    Zr17   O73       0.64045      .   S
    Zr8    O74       0.64078      .   S
    Zr24   O74       0.64078      .   S
    Zr8    O75       0.63435      .   S
    Zr26   O75       0.63435      .   S
    Zr9    O76       0.64074      .   S
    Zr25   O76       0.64074      .   S
    Zr9    O77       0.63414      .   S
    Zr27   O77       0.63414      .   S
    Zr25   O78       1.18575      .   S
    Zr1    O78       1.18575      .   S
    Zr24   O79       1.18575      .   S
    Zr0    O79       1.18575      .   S
    Zr27   O80       1.20523      .   S
    Zr1    O80       1.20523      .   S
    Zr26   O81       1.20520      .   S
    Zr0    O81       1.20520      .   S
    Zr1    O82       1.20475      .   S
    Zr45   O82       1.20475      .   S
    Zr1    O83       1.16609      .   S
    Zr55   O83       1.16609      .   S
    Zr0    O84       1.20474      .   S
    Zr44   O84       1.20474      .   S
    Zr0    O85       1.16657      .   S
    Zr54   O85       1.16657      .   S
    Zr19   O86       0.63920      .   S
    Zr45   O86       0.63920      .   S
    Zr19   O87       0.63756      .   S
    Zr47   O87       0.63756      .   S
    Zr18   O88       0.63922      .   S
    Zr44   O88       0.63922      .   S
    Zr18   O89       0.63806      .   S
    Zr46   O89       0.63806      .   S
    Zr47   O90       1.16694      .   S
    Zr3    O90       1.16694      .   S
    Zr46   O91       1.16648      .   S
    Zr2    O91       1.16648      .   S
    Zr55   O92       0.63846      .   S
    Zr23   O92       0.63846      .   S
    Zr54   O93       0.63799      .   S
    Zr22   O93       0.63799      .   S
    Zr52   O94       0.63921      .   S
    Zr22   O94       0.63921      .   S
    Zr52   O95       1.20472      .   S
    Zr2    O95       1.20472      .   S
    Zr53   O96       0.63920      .   S
    Zr23   O96       0.63920      .   S
    Zr53   O97       1.20479      .   S
    Zr3    O97       1.20479      .   S
    Zr2    O98       1.20523      .   S
    Zr34   O98       1.20523      .   S
    Zr2    O99       1.18575      .   S
    Zr32   O99       1.18575      .   S
    Zr3    O100      1.20525      .   S
    Zr35   O100      1.20525      .   S
    Zr3    O101      1.18574      .   S
    Zr33   O101      1.18574      .   S
    Zr34   O102      0.63411      .   S
    Zr12   O102      0.63411      .   S
    Zr35   O103      0.63412      .   S
    Zr13   O103      0.63412      .   S
    Zr32   O104      0.64074      .   S
    Zr12   O104      0.64074      .   S
    Zr33   O105      0.64074      .   S
    Zr13   O105      0.64074      .   S
    Zr21   O106      0.64046      .   S
    Zr49   O106      0.64046      .   S
    Zr21   O107      0.63424      .   S
    Zr51   O107      0.63424      .   S
    Zr20   O108      0.64045      .   S
    Zr48   O108      0.64045      .   S
    Zr20   O109      0.63422      .   S
    Zr50   O109      0.63422      .   S
    Zr49   O110      1.18993      .   S
    Zr7    O110      1.18993      .   S
    Zr48   O111      1.18994      .   S
    Zr6    O111      1.18994      .   S
    Zr51   O112      1.20110      .   S
    Zr7    O112      1.20110      .   S
    Zr50   O113      1.20117      .   S
    Zr6    O113      1.20117      .   S
    Zr7    O114      1.20921      .   S
    Zr37   O114      1.20921  1_545   S
    Zr6    O115      1.20905      .   S
    Zr36   O115      1.20905  1_545   S
    Zr14   O116      0.64065      .   S
    Zr36   O116      0.64065      .   S
    Zr14   O117      0.63721      .   S
    Zr38   O117      0.63721      .   S
    Zr15   O118      0.64069      .   S
    Zr37   O118      0.64069      .   S
    Zr15   O119      0.63727      .   S
    Zr39   O119      0.63727      .   S
    N120   O121      1.29285      .   S
    Zr4    O121      2.49186      .   S
    N120   O122      1.29274      .   S
    Zr5    O122      2.49204      .   S
    N123   O124      1.29301      .   S
    Zr0    O124      2.49239      .   S
    N123   O125      1.29288      .   S
    Zr1    O125      2.49254      .   S
    N126   O127      0.99194      .   S
    Zr17   O127      1.72975      .   S
    N126   O128      1.23917      .   S
    Zr19   O128      1.97508      .   S
    N129   O130      0.99204      .   S
    Zr21   O130      1.72986      .   S
    N129   O131      1.23910      .   S
    Zr23   O131      1.97501      .   S
    N132   O133      1.29310      .   S
    Zr1    O133      2.49243      .   S
    N132   O134      1.29299  1_655   S
    Zr0    O134      2.49264      .   S
    N135   O136      1.23945      .   S
    Zr11   O136      1.97515      .   S
    N135   O137      0.99110      .   S
    Zr9    O137      1.72977      .   S
    N138   O139      1.29297  1_455   S
    Zr3    O139      2.49262      .   S
    N138   O140      1.29310      .   S
    Zr2    O140      2.49244      .   S
    N141   O142      1.29302      .   S
    Zr6    O142      2.49258      .   S
    N141   O143      1.29282      .   S
    Zr7    O143      2.49194      .   S
    N144   O145      1.29306  1_655   S
    Zr4    O145      2.49262      .   S
    N144   O146      1.29325      .   S
    Zr5    O146      2.49266      .   S
    N147   O148      1.29289      .   S
    Zr2    O148      2.49257      .   S
    N147   O149      1.29301      .   S
    Zr3    O149      2.49239      .   S
    N150   O151      1.23954      .   S
    Zr10   O151      1.97516      .   S
    N150   O152      0.99127      .   S
    Zr8    O152      1.72871      .   S
    N153   O154      1.29311      .   S
    Zr7    O154      2.49260      .   S
    N153   O155      1.29293  1_655   S
    Zr6    O155      2.49204      .   S
    N156   O157      1.23915      .   S
    Zr18   O157      1.97505      .   S
    N156   O158      0.99200      .   S
    Zr16   O158      1.72977      .   S
    N159   O160      1.23842      .   S
    Zr22   O160      1.97425      .   S
    N159   O161      0.99285      .   S
    Zr20   O161      1.73070      .   S
    N162   O163      1.23958      .   S
    Zr14   O163      1.97522      .   S
    N162   O164      0.99137      .   S
    Zr12   O164      1.72915      .   S
    N165   O166      1.23961      .   S
    Zr15   O166      1.97527      .   S
    N165   O167      0.99135      .   S
    Zr13   O167      1.72919      .   S
