# CIF file generated by openbabel 2.4.90, see http://openbabel.sf.net
data_I
_chemical_name_common ''
_cell_length_a 10.816
_cell_length_b 15.94
_cell_length_c 18.497
_cell_angle_alpha 114.393
_cell_angle_beta 107.119
_cell_angle_gamma 93.922
_space_group_name_H-M_alt 'P 1'
_space_group_name_Hall 'P 1'
loop_
    _symmetry_equiv_pos_as_xyz
    x,y,z
loop_
    _atom_site_label
    _atom_site_type_symbol
    _atom_site_fract_x
    _atom_site_fract_y
    _atom_site_fract_z
    _atom_site_occupancy
    N0      N    0.45835   0.23861   0.85405   1.000
    N1      N    0.54119   0.76115   0.14579   1.000
    Zr2     Zr   0.19257   0.51112   0.36795   1.000
    Zr3     Zr   0.07059   0.61723   0.57390   1.000
    O4      O    0.91308   0.64155   0.45567   1.000
    O5      O    0.19608   0.66491   0.48413   1.000
    Zr6     Zr   0.92940   0.38277   0.42617   1.000
    O7      O    0.08681   0.35839   0.54434   1.000
    Zr8     Zr   0.80741   0.48892   0.63219   1.000
    O9      O    0.72742   0.54989   0.49907   1.000
    O10     O    0.27245   0.45008   0.50099   1.000
    O11     O    0.81023   0.34406   0.51802   1.000
    O12     O    0.82590   0.48422   0.36574   1.000
    O13     O    0.24727   0.43472   0.22957   1.000
    O14     O    0.17398   0.51572   0.63428   1.000
    O15     O    0.75069   0.56524   0.77049   1.000
loop_
    _geom_bond_atom_site_label_1
    _geom_bond_atom_site_label_2
    _geom_bond_distance
    _geom_bond_site_symmetry_2
    _ccdc_geom_bond_type
    Zr3    O4        2.53617  1_455   S
    N1     O4        7.01218      .   S
    Zr3    O5        2.72126      .   S
    N1     O5        8.73790      .   S
    Zr6    O7        2.53538  1_655   S
    N0     O7        7.01033      .   S
    Zr8    O9        2.93143      .   S
    N1     O9        8.33390      .   S
    Zr2    O10       2.93090      .   S
    N0     O10       8.33265      .   S
    Zr6    O11       2.64100      .   S
    N0     O11       8.81049      .   S
    Zr6    O12       2.47422      .   S
    N1     O12       7.40537      .   S
    N0     O13       7.45711  1_556   S
    Zr2    O13       2.60771      .   S
    N0     O14       7.40454      .   S
    Zr3    O14       2.47397      .   S
    N1     O15       7.44310  1_554   S
    Zr8    O15       2.61841      .   S
