# CIF file generated by openbabel 2.4.90, see http://openbabel.sf.net
data_I
_chemical_name_common ''
_cell_length_a 10.816
_cell_length_b 15.94
_cell_length_c 18.497
_cell_angle_alpha 114.393
_cell_angle_beta 107.119
_cell_angle_gamma 93.922
_space_group_name_H-M_alt 'P 1'
_space_group_name_Hall 'P 1'
loop_
    _symmetry_equiv_pos_as_xyz
    x,y,z
loop_
    _atom_site_label
    _atom_site_type_symbol
    _atom_site_fract_x
    _atom_site_fract_y
    _atom_site_fract_z
    _atom_site_occupancy
    Zr0     Zr   0.07059   0.61723   0.57390   1.000
    Zr1     Zr   0.19257   0.51112   0.36795   1.000
    Zr2     Zr   0.92940   0.38277   0.42617   1.000
    Zr3     Zr   0.80741   0.48892   0.63219   1.000
    N4      N    0.45835   0.23861   0.85405   1.000
    O5      O    0.26969   0.35551   0.09958   1.000
    O6      O    0.70390   0.32342   0.61414   1.000
    O7      O    0.35282   0.36341   0.63619   1.000
    O8      O    0.24421   0.33402   0.66251   1.000
    O9      O    0.27951   0.39264   0.69944   1.000
    O10     O    0.67822   0.28729   0.60561   1.000
    O11     O    0.33790   0.34463   0.08430   1.000
    O12     O    0.27522   0.43580   0.68987   1.000
    O13     O    0.35186   0.41465   0.63187   1.000
    O14     O    0.33062   0.37766   0.08131   1.000
    N15     N    0.54119   0.76115   0.14579   1.000
    O16     O    0.72245   0.64438   0.90040   1.000
    O17     O    0.64695   0.63647   0.36379   1.000
    O18     O    0.75556   0.66586   0.33745   1.000
    O19     O    0.72026   0.60725   0.30051   1.000
    O20     O    0.32157   0.71259   0.39436   1.000
    O21     O    0.66185   0.65526   0.91569   1.000
    O22     O    0.72455   0.56409   0.31011   1.000
    O23     O    0.64792   0.58525   0.36812   1.000
    O24     O    0.66914   0.62224   0.91868   1.000
loop_
    _geom_bond_atom_site_label_1
    _geom_bond_atom_site_label_2
    _geom_bond_distance
    _geom_bond_site_symmetry_2
    _ccdc_geom_bond_type
    N4     O5        5.21993  1_556   S
    Zr1    O5        4.90311      .   S
    N4     O6        6.32281      .   S
    Zr2    O6        5.13078      .   S
    N4     O7        5.07199      .   S
    Zr1    O7        6.18942      .   S
    N4     O8        4.50905      .   S
    Zr2    O8        5.07077  1_655   S
    N4     O9        4.59792      .   S
    Zr0    O9        5.31029      .   S
    N4     O10       6.04164      .   S
    Zr2    O10       5.44330      .   S
    N4     O11       4.50709  1_556   S
    Zr1    O11       5.56481      .   S
    N4     O12       5.31232      .   S
    Zr0    O12       4.59004      .   S
    N4     O13       5.76806      .   S
    Zr1    O13       5.54765      .   S
    N4     O14       4.54246  1_556   S
    Zr1    O14       5.53578      .   S
    N15    O16       5.16428  1_554   S
    Zr3    O16       4.94360      .   S
    N15    O17       5.07275      .   S
    Zr3    O17       6.19043      .   S
    N15    O18       4.51009      .   S
    Zr0    O18       5.07234  1_455   S
    N15    O19       4.59852      .   S
    Zr2    O19       5.31077      .   S
    N15    O20       6.04140      .   S
    Zr0    O20       5.44252      .   S
    N15    O21       4.50611  1_554   S
    Zr3    O21       5.56368      .   S
    N15    O22       5.31289      .   S
    Zr2    O22       4.59057      .   S
    N15    O23       5.76872      .   S
    Zr3    O23       5.54877      .   S
    N15    O24       4.54140  1_554   S
    Zr3    O24       5.53472      .   S
