# CIF file generated by openbabel 2.4.90, see http://openbabel.sf.net
data_I
_chemical_name_common ''
_cell_length_a 10.816
_cell_length_b 15.94
_cell_length_c 18.497
_cell_angle_alpha 114.393
_cell_angle_beta 107.119
_cell_angle_gamma 93.922
_space_group_name_H-M_alt 'P 1'
_space_group_name_Hall 'P 1'
loop_
    _symmetry_equiv_pos_as_xyz
    x,y,z
loop_
    _atom_site_label
    _atom_site_type_symbol
    _atom_site_fract_x
    _atom_site_fract_y
    _atom_site_fract_z
    _atom_site_occupancy
    N0      N    0.45835   0.23861   0.85405   1.000
    N1      N    0.54119   0.76115   0.14579   1.000
    Zr2     Zr   0.19257   0.51112   0.36795   1.000
    O3      O    0.27269   0.43727   0.50207   1.000
    O4      O    0.23113   0.43332   0.23377   1.000
    O5      O    0.27221   0.46288   0.49991   1.000
    O6      O    0.26159   0.44439   0.22463   1.000
    O7      O    0.26523   0.42787   0.22612   1.000
    Zr8     Zr   0.07059   0.61723   0.57390   1.000
    O9      O    0.91308   0.64155   0.45567   1.000
    O10     O    0.19608   0.66491   0.48413   1.000
    O11     O    0.17505   0.50493   0.63667   1.000
    O12     O    0.17291   0.52651   0.63188   1.000
    Zr13    Zr   0.92940   0.38277   0.42617   1.000
    O14     O    0.08681   0.35839   0.54434   1.000
    O15     O    0.82483   0.49501   0.36334   1.000
    O16     O    0.82698   0.47343   0.36814   1.000
    O17     O    0.80381   0.33503   0.51589   1.000
    O18     O    0.81665   0.35310   0.52015   1.000
    Zr19    Zr   0.80741   0.48892   0.63219   1.000
    O20     O    0.72718   0.56270   0.49799   1.000
    O21     O    0.73827   0.55558   0.77543   1.000
    O22     O    0.73463   0.57209   0.77394   1.000
    O23     O    0.72767   0.53709   0.50016   1.000
    O24     O    0.76493   0.56665   0.76630   1.000
loop_
    _geom_bond_atom_site_label_1
    _geom_bond_atom_site_label_2
    _geom_bond_distance
    _geom_bond_site_symmetry_2
    _ccdc_geom_bond_type
    Zr2    O3        3.09471      .   S
    N0     O3        8.16398      .   S
    Zr2    O4        2.45156      .   S
    N0     O4        7.62911  1_556   S
    Zr2    O5        2.77382      .   S
    N0     O5        8.50332      .   S
    Zr2    O6        2.76789      .   S
    N0     O6        7.29694  1_556   S
    Zr2    O7        2.78241      .   S
    N0     O7        7.28043  1_556   S
    Zr8    O9        2.53617  1_455   S
    N1     O9        7.01218      .   S
    Zr8    O10       2.72126      .   S
    N1     O10       8.73790      .   S
    Zr8    O11       2.65514      .   S
    N0     O11       7.22523      .   S
    Zr8    O12       2.29502      .   S
    N0     O12       7.58462      .   S
    Zr13   O14       2.53538  1_655   S
    N0     O14       7.01033      .   S
    Zr13   O15       2.65539      .   S
    N1     O15       7.22606      .   S
    Zr13   O16       2.29528      .   S
    N1     O16       7.58544      .   S
    Zr13   O17       2.72165      .   S
    N0     O17       8.73854      .   S
    Zr13   O18       2.56539      .   S
    N0     O18       8.88405      .   S
    Zr19   O20       3.09522      .   S
    N1     O20       8.16526      .   S
    Zr19   O21       2.76736      .   S
    N1     O21       7.29535  1_554   S
    Zr19   O22       2.78184      .   S
    N1     O22       7.27888  1_554   S
    Zr19   O23       2.77439      .   S
    N1     O23       8.50454      .   S
    Zr19   O24       2.47180      .   S
    N1     O24       7.60219  1_554   S
