# CIF file generated by openbabel 2.4.90, see http://openbabel.sf.net
data_I
_chemical_name_common ''
_cell_length_a 13.087
_cell_length_b 16.838
_cell_length_c 13.96
_cell_angle_alpha 105.88
_cell_angle_beta 89.81
_cell_angle_gamma 90.133
_space_group_name_H-M_alt 'P 1'
_space_group_name_Hall 'P 1'
loop_
    _symmetry_equiv_pos_as_xyz
    x,y,z
loop_
    _atom_site_label
    _atom_site_type_symbol
    _atom_site_fract_x
    _atom_site_fract_y
    _atom_site_fract_z
    _atom_site_occupancy
    C0      C    0.40735   0.65238   0.74002   1.000
    C1      C    0.09962   0.64771   0.52101   1.000
    C2      C    0.38811   0.95651   0.83150   1.000
    C3      C    0.17714   0.19944   0.80350   1.000
    C4      C    0.90913   0.34709   0.75894   1.000
    C5      C    0.60083   0.35151   0.97846   1.000
    C6      C    0.88990   0.04286   0.67108   1.000
    C7      C    0.67543   0.80039   0.69709   1.000
    C8      C    0.59424   0.34730   0.25832   1.000
    C9      C    0.89859   0.35329   0.48097   1.000
    C10     C    0.61449   0.04155   0.16869   1.000
    C11     C    0.82683   0.79792   0.19420   1.000
    C12     C    0.09477   0.65231   0.24182   1.000
    C13     C    0.39972   0.64577   0.01724   1.000
    C14     C    0.11195   0.95726   0.32874   1.000
    C15     C    0.32647   0.19928   0.30140   1.000
