# CIF file generated by openbabel 2.4.90, see http://openbabel.sf.net
data_I
_chemical_name_common ''
_cell_length_a 13.087
_cell_length_b 16.838
_cell_length_c 13.96
_cell_angle_alpha 105.88
_cell_angle_beta 89.81
_cell_angle_gamma 90.133
_space_group_name_H-M_alt 'P 1'
_space_group_name_Hall 'P 1'
loop_
    _symmetry_equiv_pos_as_xyz
    x,y,z
loop_
    _atom_site_label
    _atom_site_type_symbol
    _atom_site_fract_x
    _atom_site_fract_y
    _atom_site_fract_z
    _atom_site_occupancy
    N0      N    0.66289   0.85959   0.07433   1.000
    N1      N    0.27437   0.54943   0.13401   1.000
    N2      N    0.77352   0.45003   0.36574   1.000
    N3      N    0.22703   0.55005   0.63337   1.000
    N4      N    0.84030   0.86122   0.57706   1.000
    N5      N    0.72815   0.44890   0.86457   1.000
    N6      N    0.16206   0.13884   0.42221   1.000
    N7      N    0.33954   0.13832   0.92449   1.000
    Zr8     Zr   0.48268   0.75782   0.82626   1.000
    O9      O    0.57986   0.64605   0.84788   1.000
    O10     O    0.38883   0.67372   0.74928   1.000
    O11     O    0.63060   0.79872   0.72503   1.000
    O12     O    0.40188   0.67257   0.95882   1.000
    O13     O    0.41907   0.91358   0.85767   1.000
    Zr14    Zr   0.98374   0.24150   0.67347   1.000
    O15     O    0.90195   0.32674   0.54062   1.000
    O16     O    0.92020   0.08582   0.64319   1.000
    O17     O    0.89006   0.32552   0.74978   1.000
    O18     O    0.13120   0.20077   0.77537   1.000
    O19     O    0.07980   0.35285   0.65046   1.000
    Zr20    Zr   0.01829   0.75803   0.32654   1.000
    O21     O    0.11247   0.67360   0.24994   1.000
    O22     O    0.92159   0.64686   0.34893   1.000
    O23     O    0.08190   0.91398   0.35654   1.000
    O24     O    0.09891   0.67325   0.45951   1.000
    O25     O    0.87131   0.79786   0.22388   1.000
    Zr26    Zr   0.51928   0.24066   0.17094   1.000
    O27     O    0.61259   0.32549   0.24877   1.000
    O28     O    0.37145   0.20050   0.27297   1.000
    O29     O    0.42259   0.35228   0.14990   1.000
    O30     O    0.58316   0.08464   0.14068   1.000
    O31     O    0.59996   0.32563   0.03850   1.000
    O32     O    0.95612   0.78316   0.40518   1.000
    O33     O    0.54568   0.78235   0.90396   1.000
    O34     O    0.45652   0.21584   0.09415   1.000
    O35     O    0.04619   0.21661   0.59459   1.000
loop_
    _geom_bond_atom_site_label_1
    _geom_bond_atom_site_label_2
    _geom_bond_distance
    _geom_bond_site_symmetry_2
    _ccdc_geom_bond_type
    Zr8    O9        2.36109      .   S
    N5     O9        3.91110      .   S
    Zr8    O10       1.95872      .   S
    N3     O10       3.09790      .   S
    Zr8    O11       2.59359      .   S
    N4     O11       3.74773      .   S
    Zr8    O12       2.83488      .   S
    N1     O12       3.97455  1_554   S
    Zr8    O13       2.67235      .   S
    N7     O13       3.78866  1_545   S
    Zr14   O15       2.84998      .   S
    N2     O15       3.98883      .   S
    Zr14   O16       2.66967      .   S
    N4     O16       3.78483  1_565   S
    Zr14   O17       1.95290      .   S
    N5     O17       3.09028      .   S
    Zr14   O18       2.60318  1_655   S
    N7     O18       3.75793      .   S
    Zr14   O19       2.34839  1_655   S
    N3     O19       3.89807      .   S
    Zr20   O21       1.96241      .   S
    N1     O21       3.10257      .   S
    Zr20   O22       2.34718  1_455   S
    N2     O22       3.89711      .   S
    Zr20   O23       2.67476      .   S
    N6     O23       3.79012  1_545   S
    Zr20   O24       2.84016      .   S
    N3     O24       3.97546      .   S
    Zr20   O25       2.59884  1_455   S
    N0     O25       3.75721      .   S
    Zr26   O27       1.96556      .   S
    N2     O27       3.10284      .   S
    Zr26   O28       2.59450      .   S
    N6     O28       3.74966      .   S
    Zr26   O29       2.35274      .   S
    N1     O29       3.90742      .   S
    Zr26   O30       2.67934      .   S
    N0     O30       3.79451  1_565   S
    Zr26   O31       2.82991      .   S
    N5     O31       3.96647  1_556   S
    Zr20   O32       1.33700  1_455   S
    N4     O32       2.83574      .   S
    Zr8    O33       1.33637      .   S
    N0     O33       2.83256  1_554   S
    Zr26   O34       1.32582      .   S
    N7     O34       2.82481  1_556   S
    Zr14   O35       1.34141  1_655   S
    N6     O35       2.83997      .   S
