# CIF file generated by openbabel 2.4.90, see http://openbabel.sf.net
data_I
_chemical_name_common ''
_cell_length_a 13.087
_cell_length_b 16.838
_cell_length_c 13.96
_cell_angle_alpha 105.88
_cell_angle_beta 89.81
_cell_angle_gamma 90.133
_space_group_name_H-M_alt 'P 1'
_space_group_name_Hall 'P 1'
loop_
    _symmetry_equiv_pos_as_xyz
    x,y,z
loop_
    _atom_site_label
    _atom_site_type_symbol
    _atom_site_fract_x
    _atom_site_fract_y
    _atom_site_fract_z
    _atom_site_occupancy
    Zr0     Zr   0.50146   0.81957   0.81287   1.000
    Zr1     Zr   0.44354   0.34732   0.10563   1.000
    Zr2     Zr   0.00412   0.18029   0.68739   1.000
    Zr3     Zr   0.94239   0.65222   0.39502   1.000
    Zr4     Zr   0.50232   0.17829   0.18685   1.000
    Zr5     Zr   0.55959   0.64999   0.89127   1.000
    Zr6     Zr   0.00000   0.81941   0.31243   1.000
    Zr7     Zr   0.05824   0.34768   0.60461   1.000
    Zr8     Zr   0.40735   0.65238   0.74002   1.000
    Zr9     Zr   0.09962   0.64771   0.52101   1.000
    Zr10    Zr   0.38811   0.95651   0.83150   1.000
    Zr11    Zr   0.17714   0.19944   0.80350   1.000
    Zr12    Zr   0.90913   0.34709   0.75894   1.000
    Zr13    Zr   0.60083   0.35151   0.97846   1.000
    Zr14    Zr   0.88990   0.04286   0.67108   1.000
    Zr15    Zr   0.67543   0.80039   0.69709   1.000
    Zr16    Zr   0.59424   0.34730   0.25832   1.000
    Zr17    Zr   0.89859   0.35329   0.48097   1.000
    Zr18    Zr   0.61449   0.04155   0.16869   1.000
    Zr19    Zr   0.82683   0.79792   0.19420   1.000
    Zr20    Zr   0.09477   0.65231   0.24182   1.000
    Zr21    Zr   0.39972   0.64577   0.01724   1.000
    Zr22    Zr   0.11195   0.95726   0.32874   1.000
    Zr23    Zr   0.32647   0.19928   0.30140   1.000
    Zr24    Zr   0.47113   0.61045   0.77467   1.000
    Zr25    Zr   0.40872   0.72944   0.74987   1.000
    Zr26    Zr   0.00646   0.61912   0.50460   1.000
    Zr27    Zr   0.13787   0.70201   0.48700   1.000
    Zr28    Zr   0.43056   0.91962   0.89145   1.000
    Zr29    Zr   0.37783   0.92578   0.74010   1.000
    Zr30    Zr   0.12393   0.14223   0.74171   1.000
    Zr31    Zr   0.16444   0.27491   0.82116   1.000
    Zr32    Zr   0.97273   0.38895   0.72330   1.000
    Zr33    Zr   0.91098   0.27019   0.75006   1.000
    Zr34    Zr   0.50724   0.37898   0.99448   1.000
    Zr35    Zr   0.63986   0.29817   0.00000   1.000
    Zr36    Zr   0.93196   0.08020   0.61110   1.000
    Zr37    Zr   0.87996   0.07303   0.76264   1.000
    Zr38    Zr   0.62178   0.85771   0.75837   1.000
    Zr39    Zr   0.66223   0.72492   0.67943   1.000
    Zr40    Zr   0.53211   0.38891   0.22140   1.000
    Zr41    Zr   0.59186   0.27052   0.25015   1.000
    Zr42    Zr   0.99288   0.37958   0.49513   1.000
    Zr43    Zr   0.85835   0.30126   0.51700   1.000
    Zr44    Zr   0.57368   0.07891   0.10828   1.000
    Zr45    Zr   0.62333   0.07213   0.26022   1.000
    Zr46    Zr   0.87977   0.85498   0.25663   1.000
    Zr47    Zr   0.83998   0.72244   0.17525   1.000
    Zr48    Zr   0.03148   0.61101   0.27851   1.000
    Zr49    Zr   0.09329   0.72917   0.25008   1.000
    Zr50    Zr   0.49319   0.61796   0.00078   1.000
    Zr51    Zr   0.36044   0.69904   0.98304   1.000
    Zr52    Zr   0.07132   0.91978   0.38930   1.000
    Zr53    Zr   0.12030   0.92704   0.23700   1.000
    Zr54    Zr   0.38199   0.14165   0.24277   1.000
    Zr55    Zr   0.33796   0.27471   0.31657   1.000
    O56     O    0.62034   0.32484   0.98923   1.000
    O57     O    0.44645   0.63187   0.00901   1.000
    O58     O    0.52639   0.63398   0.94603   1.000
    O59     O    0.38008   0.67240   0.00014   1.000
    O60     O    0.48782   0.36812   0.16352   1.000
    O61     O    0.47539   0.36315   0.05006   1.000
    O62     O    0.59408   0.06023   0.13849   1.000
    O63     O    0.53800   0.12860   0.14757   1.000
    O64     O    0.61891   0.05684   0.21446   1.000
    O65     O    0.83340   0.76018   0.18473   1.000
    O66     O    0.44215   0.15997   0.21481   1.000
    O67     O    0.54709   0.22440   0.21850   1.000
    O68     O    0.85330   0.82645   0.22542   1.000
    O69     O    0.56317   0.36811   0.23986   1.000
    O70     O    0.11613   0.94215   0.28287   1.000
    O71     O    0.09403   0.69074   0.24595   1.000
    O72     O    0.06313   0.63166   0.26017   1.000
    O73     O    0.35423   0.17046   0.27209   1.000
    O74     O    0.04664   0.77429   0.28126   1.000
    O75     O    0.59305   0.30891   0.25423   1.000
    O76     O    0.93988   0.83719   0.28453   1.000
    O77     O    0.98694   0.63162   0.33676   1.000
    O78     O    0.33222   0.23699   0.30899   1.000
    O79     O    0.03566   0.86960   0.35086   1.000
    O80     O    0.09164   0.93852   0.35902   1.000
    O81     O    0.97442   0.63567   0.44981   1.000
    O82     O    0.94573   0.36644   0.48805   1.000
    O83     O    0.87846   0.32727   0.49899   1.000
    O84     O    0.11874   0.67486   0.50400   1.000
    O85     O    0.02555   0.36363   0.54987   1.000
    O86     O    0.05304   0.63342   0.51280   1.000
    O87     O    0.01548   0.36832   0.66396   1.000
    O88     O    0.91093   0.06153   0.64109   1.000
    O89     O    0.96804   0.13025   0.64925   1.000
    O90     O    0.88493   0.05794   0.71686   1.000
    O91     O    0.66883   0.76266   0.68826   1.000
    O92     O    0.06402   0.16126   0.71455   1.000
    O93     O    0.95755   0.22524   0.71873   1.000
    O94     O    0.64860   0.82905   0.72773   1.000
    O95     O    0.94093   0.36802   0.74112   1.000
    O96     O    0.40803   0.69091   0.74495   1.000
    O97     O    0.43924   0.63142   0.75735   1.000
    O98     O    0.38297   0.94115   0.78580   1.000
    O99     O    0.15054   0.17084   0.77260   1.000
    O100    O    0.45509   0.77450   0.78137   1.000
    O101    O    0.91006   0.30864   0.75450   1.000
    O102    O    0.56162   0.83864   0.78562   1.000
    O103    O    0.51536   0.63022   0.83297   1.000
    O104    O    0.17079   0.23717   0.81233   1.000
    O105    O    0.46601   0.86960   0.85216   1.000
    O106    O    0.40934   0.93807   0.86148   1.000
    O107    O    0.55403   0.36524   0.98647   1.000
    N108    N    0.66289   0.85959   0.07433   1.000
    O109    O    0.72433   0.83769   0.12122   1.000
    O110    O    0.61594   0.78568   0.99146   1.000
    O111    O    0.60140   0.82807   0.97186   1.000
    O112    O    0.64703   0.92863   0.11041   1.000
    N113    N    0.27437   0.54943   0.13401   1.000
    O114    O    0.32107   0.58732   0.09137   1.000
    O115    O    0.20665   0.58918   0.17334   1.000
    O116    O    0.32590   0.46390   0.12886   1.000
    N117    N    0.77352   0.45003   0.36574   1.000
    O118    O    0.82016   0.41199   0.40777   1.000
    O119    O    0.70590   0.41032   0.32660   1.000
    O120    O    0.82489   0.53570   0.37131   1.000
    N121    N    0.22703   0.55005   0.63337   1.000
    O122    O    0.29499   0.58962   0.67229   1.000
    O123    O    0.17953   0.58847   0.59248   1.000
    O124    O    0.17587   0.46420   0.62745   1.000
    N125    N    0.84030   0.86122   0.57706   1.000
    O126    O    0.77851   0.83962   0.62380   1.000
    O127    O    0.85666   0.93015   0.61291   1.000
    O128    O    0.88675   0.78740   0.49414   1.000
    O129    O    0.90115   0.82920   0.47349   1.000
    N130    N    0.72815   0.44890   0.86457   1.000
    O131    O    0.68064   0.41060   0.90605   1.000
    O132    O    0.79637   0.40953   0.82609   1.000
    O133    O    0.67704   0.53428   0.86949   1.000
    N134    N    0.16206   0.13884   0.42221   1.000
    O135    O    0.22362   0.16034   0.37499   1.000
    O136    O    0.14551   0.06993   0.38653   1.000
    O137    O    0.11541   0.21263   0.50536   1.000
    O138    O    0.10188   0.17079   0.52605   1.000
    N139    N    0.33954   0.13832   0.92449   1.000
    O140    O    0.35546   0.06933   0.88908   1.000
    O141    O    0.27866   0.16003   0.87727   1.000
    O142    O    0.38641   0.21214   0.00720   1.000
    O143    O    0.40110   0.16988   0.02750   1.000
loop_
    _geom_bond_atom_site_label_1
    _geom_bond_atom_site_label_2
    _geom_bond_distance
    _geom_bond_site_symmetry_2
    _ccdc_geom_bond_type
    Zr35   O56       0.57208  1_554   S
    Zr13   O56       0.57208      .   S
    Zr50   O57       0.65389      .   S
    Zr21   O57       0.65389      .   S
    Zr50   O58       0.97766  1_554   S
    Zr5    O58       0.97766      .   S
    Zr21   O59       0.61939      .   S
    Zr51   O59       0.61939  1_556   S
    Zr1    O60       0.97916      .   S
    Zr40   O60       0.97916      .   S
    Zr1    O61       0.97834      .   S
    Zr34   O61       0.97834  1_556   S
    Zr44   O62       0.64946      .   S
    Zr18   O62       0.64946      .   S
    Zr44   O63       0.98379      .   S
    Zr4    O63       0.98379      .   S
    Zr18   O64       0.62287      .   S
    Zr45   O64       0.62287      .   S
    Zr47   O65       0.61884      .   S
    Zr19   O65       0.61884      .   S
    Zr4    O66       0.96442      .   S
    Zr54   O66       0.96442      .   S
    Zr4    O67       0.97638      .   S
    Zr41   O67       0.97638      .   S
    Zr19   O68       0.65294      .   S
    Zr46   O68       0.65294      .   S
    Zr40   O69       0.63656      .   S
    Zr16   O69       0.63656      .   S
    Zr53   O70       0.62324      .   S
    Zr22   O70       0.62324      .   S
    Zr20   O71       0.63378      .   S
    Zr49   O71       0.63378      .   S
    Zr20   O72       0.63668      .   S
    Zr48   O72       0.63668      .   S
    Zr54   O73       0.65271      .   S
    Zr23   O73       0.65271      .   S
    Zr49   O74       0.97911      .   S
    Zr6    O74       0.97911      .   S
    Zr41   O75       0.63340      .   S
    Zr16   O75       0.63340      .   S
    Zr46   O76       0.96297      .   S
    Zr6    O76       0.96297  1_455   S
    Zr48   O77       0.98233  1_455   S
    Zr3    O77       0.98233      .   S
    Zr23   O78       0.61899      .   S
    Zr55   O78       0.61899      .   S
    Zr6    O79       0.98564      .   S
    Zr52   O79       0.98564      .   S
    Zr22   O80       0.64868      .   S
    Zr52   O80       0.64868      .   S
    Zr3    O81       0.97863      .   S
    Zr26   O81       0.97863  1_455   S
    Zr17   O82       0.65364      .   S
    Zr42   O82       0.65364      .   S
    Zr17   O83       0.61950      .   S
    Zr43   O83       0.61950      .   S
    Zr27   O84       0.62161      .   S
    Zr9    O84       0.62161      .   S
    Zr42   O85       0.97674  1_655   S
    Zr7    O85       0.97674      .   S
    Zr26   O86       0.65376      .   S
    Zr9    O86       0.65376      .   S
    Zr7    O87       0.97999      .   S
    Zr32   O87       0.97999  1_655   S
    Zr36   O88       0.64866      .   S
    Zr14   O88       0.64866      .   S
    Zr36   O89       0.98531      .   S
    Zr2    O89       0.98531  1_455   S
    Zr14   O90       0.62302      .   S
    Zr37   O90       0.62302      .   S
    Zr39   O91       0.61918      .   S
    Zr15   O91       0.61918      .   S
    Zr2    O92       0.96475      .   S
    Zr30   O92       0.96475      .   S
    Zr2    O93       0.97708  1_455   S
    Zr33   O93       0.97708      .   S
    Zr15   O94       0.65258      .   S
    Zr38   O94       0.65258      .   S
    Zr32   O95       0.63709      .   S
    Zr12   O95       0.63709      .   S
    Zr8    O96       0.63346      .   S
    Zr25   O96       0.63346      .   S
    Zr8    O97       0.63669      .   S
    Zr24   O97       0.63669      .   S
    Zr29   O98       0.62318      .   S
    Zr10   O98       0.62318      .   S
    Zr30   O99       0.65254      .   S
    Zr11   O99       0.65254      .   S
    Zr25   O100      0.97695      .   S
    Zr0    O100      0.97695      .   S
    Zr33   O101      0.63349      .   S
    Zr12   O101      0.63349      .   S
    Zr38   O102      0.96512      .   S
    Zr0    O102      0.96512      .   S
    Zr24   O103      0.98089      .   S
    Zr5    O103      0.98089      .   S
    Zr11   O104      0.61893      .   S
    Zr31   O104      0.61893      .   S
    Zr0    O105      0.98636      .   S
    Zr28   O105      0.98636      .   S
    Zr10   O106      0.64884      .   S
    Zr28   O106      0.64884      .   S
    Zr13   O107      0.65349      .   S
    Zr34   O107      0.65349      .   S
    N108   O109      1.16091      .   S
    Zr19   O109      1.91633      .   S
    N108   O110      1.57416  1_554   S
    Zr5    O110      2.44342      .   S
    N108   O111      1.60180  1_554   S
    Zr0    O111      2.54988      .   S
    N108   O112      1.15249      .   S
    Zr18   O112      1.90085  1_545   S
    N113   O114      1.15695      .   S
    Zr21   O114      1.90902      .   S
    N113   O115      1.15461      .   S
    Zr20   O115      1.90514      .   S
    N113   O116      1.57535      .   S
    Zr1    O116      2.44758      .   S
    N117   O118      1.15624      .   S
    Zr17   O118      1.90760      .   S
    N117   O119      1.15289      .   S
    Zr16   O119      1.90223      .   S
    N117   O120      1.57264      .   S
    Zr3    O120      2.44092      .   S
    N121   O122      1.15436      .   S
    Zr8    O122      1.90476      .   S
    N121   O123      1.15641      .   S
    Zr9    O123      1.90793      .   S
    N121   O124      1.57323      .   S
    Zr7    O124      2.44287      .   S
    N125   O126      1.15636      .   S
    Zr15   O126      1.91297      .   S
    N125   O127      1.15100      .   S
    Zr14   O127      1.89881  1_545   S
    N125   O128      1.57033      .   S
    Zr3    O128      2.42965      .   S
    N125   O129      1.60714      .   S
    Zr6    O129      2.55635  1_455   S
    N130   O131      1.15666      .   S
    Zr13   O131      1.90828      .   S
    N130   O132      1.15322      .   S
    Zr12   O132      1.90269      .   S
    N130   O133      1.57133      .   S
    Zr5    O133      2.43669      .   S
    N134   O135      1.15764      .   S
    Zr23   O135      1.91118      .   S
    N134   O136      1.15091      .   S
    Zr22   O136      1.89843  1_565   S
    N134   O137      1.57273      .   S
    Zr7    O137      2.43459      .   S
    N134   O138      1.60589      .   S
    Zr2    O138      2.55339      .   S
    N139   O140      1.15043      .   S
    Zr10   O140      1.89814  1_565   S
    N139   O141      1.15744      .   S
    Zr11   O141      1.91131      .   S
    N139   O142      1.57167  1_556   S
    Zr1    O142      2.43219      .   S
    N139   O143      1.60838  1_556   S
    Zr4    O143      2.56309      .   S
