# CIF file generated by openbabel 2.4.90, see http://openbabel.sf.net
data_I
_chemical_name_common ''
_cell_length_a 14.732
_cell_length_b 14.779
_cell_length_c 15.757
_cell_angle_alpha 117.881
_cell_angle_beta 97.495
_cell_angle_gamma 89.92
_space_group_name_H-M_alt 'P 1'
_space_group_name_Hall 'P 1'
loop_
    _symmetry_equiv_pos_as_xyz
    x,y,z
loop_
    _atom_site_label
    _atom_site_type_symbol
    _atom_site_fract_x
    _atom_site_fract_y
    _atom_site_fract_z
    _atom_site_occupancy
    Cd0     Cd   0.62483   0.05792   0.00010   1.000
    Cd1     Cd   0.87507   0.94247   0.10000   1.000
    Cu2     Cu   0.75044   0.00019   0.50000   1.000
    Cu3     Cu   0.49988   0.50023   0.50003   1.000
    H4      H    0.22714   0.65401   0.33528   1.000
    H5      H    0.72710   0.65386   0.33540   1.000
    H6      H    0.26111   0.52918   0.39805   1.000
    H7      H    0.76054   0.52941   0.39864   1.000
    H8      H    0.32155   0.59049   0.57240   1.000
    H9      H    0.82071   0.59103   0.57315   1.000
    H10     H    0.34828   0.77827   0.68378   1.000
    H11     H    0.84761   0.77884   0.68415   1.000
    H12     H    0.34791   0.94278   0.71591   1.000
    H13     H    0.84717   0.94314   0.71594   1.000
    H14     H    0.37710   0.10311   0.76658   1.000
    H15     H    0.87679   0.10342   0.76644   1.000
    H16     H    0.33309   0.16604   0.69769   1.000
    H17     H    0.83256   0.16644   0.69773   1.000
    H18     H    0.16843   0.20792   0.69245   1.000
    H19     H    0.66798   0.20801   0.69257   1.000
    H20     H    0.03234   0.24917   0.78389   1.000
    H21     H    0.53203   0.24931   0.78423   1.000
    H22     H    0.02747   0.19155   0.90978   1.000
    H23     H    0.52743   0.19175   0.91020   1.000
    H24     H    0.28000   0.06744   0.86561   1.000
    H25     H    0.77974   0.06726   0.86542   1.000
    H26     H    0.02332   0.31835   0.66468   1.000
    H27     H    0.52342   0.31816   0.66468   1.000
    H28     H    0.49025   0.13070   0.60146   1.000
    H29     H    0.98952   0.13100   0.60190   1.000
    H30     H    0.42987   0.01845   0.42701   1.000
    H31     H    0.92878   0.01860   0.42758   1.000
    H32     H    0.40244   0.09570   0.31607   1.000
    H33     H    0.90154   0.09552   0.31630   1.000
    H34     H    0.40255   0.22828   0.28428   1.000
    H35     H    0.90174   0.22799   0.28420   1.000
    H36     H    0.37295   0.33835   0.23372   1.000
    H37     H    0.87274   0.33787   0.23347   1.000
    H38     H    0.41764   0.46960   0.30222   1.000
    H39     H    0.91717   0.46924   0.30218   1.000
    H40     H    0.08184   0.51524   0.30710   1.000
    H41     H    0.58213   0.51515   0.30690   1.000
    H42     H    0.21773   0.46435   0.21537   1.000
    H43     H    0.71794   0.46409   0.21511   1.000
    H44     H    0.22217   0.28104   0.08968   1.000
    H45     H    0.72220   0.28068   0.08947   1.000
    H46     H    0.46979   0.20251   0.13483   1.000
    H47     H    0.96965   0.20253   0.13462   1.000
    H48     H    0.77414   0.34653   0.66432   1.000
    H49     H    0.73868   0.47085   0.60133   1.000
    H50     H    0.67737   0.40902   0.42000   1.000
    H51     H    0.65083   0.22114   0.31617   1.000
    H52     H    0.65201   0.05697   0.28439   1.000
    H53     H    0.62312   0.89675   0.23380   1.000
    H54     H    0.66750   0.83376   0.30250   1.000
    H55     H    0.83213   0.79224   0.30737   1.000
    H56     H    0.96799   0.75101   0.21555   1.000
    H57     H    0.97237   0.80873   0.08965   1.000
    H58     H    0.71990   0.93282   0.13456   1.000
    H59     H    0.47676   0.68208   0.33532   1.000
    H60     H    0.97537   0.68185   0.33526   1.000
    H61     H    0.01071   0.86892   0.39794   1.000
    H62     H    0.51093   0.86930   0.39820   1.000
    H63     H    0.07246   0.98088   0.57208   1.000
    H64     H    0.57188   0.98155   0.57256   1.000
    H65     H    0.09940   0.90372   0.68313   1.000
    H66     H    0.59881   0.90444   0.68360   1.000
    H67     H    0.09782   0.77156   0.71537   1.000
    H68     H    0.59829   0.77195   0.71561   1.000
    H69     H    0.12693   0.66156   0.76613   1.000
    H70     H    0.62696   0.66216   0.76641   1.000
    H71     H    0.08204   0.53038   0.69760   1.000
    H72     H    0.58239   0.53085   0.69780   1.000
    H73     H    0.41789   0.48516   0.69306   1.000
    H74     H    0.91745   0.48507   0.69290   1.000
    H75     H    0.28199   0.53616   0.78483   1.000
    H76     H    0.78168   0.53636   0.78480   1.000
    H77     H    0.27761   0.71957   0.91039   1.000
    H78     H    0.77763   0.71976   0.91048   1.000
    H79     H    0.03026   0.79754   0.86510   1.000
    H80     H    0.53007   0.79785   0.86519   1.000
    C81     C    0.26934   0.78786   0.47281   1.000
    C82     C    0.76912   0.78800   0.47283   1.000
    C83     C    0.25403   0.68015   0.41146   1.000
    C84     C    0.75384   0.68023   0.41164   1.000
    C85     C    0.97653   0.73708   0.84443   1.000
    N86     N    0.29966   0.00770   0.62947   1.000
    N87     N    0.79958   0.00798   0.62928   1.000
    N88     N    0.15321   0.12739   0.89211   1.000
    C89     C    0.27265   0.61136   0.44700   1.000
    C90     C    0.77214   0.61161   0.44750   1.000
    C91     C    0.30674   0.64546   0.54555   1.000
    C92     C    0.80604   0.64588   0.54607   1.000
    C93     C    0.32200   0.74963   0.60701   1.000
    C94     C    0.82141   0.75005   0.60734   1.000
    C95     C    0.30338   0.82220   0.57300   1.000
    C96     C    0.80299   0.82247   0.57317   1.000
    C97     C    0.31825   0.92805   0.64246   1.000
    C98     C    0.81782   0.92831   0.64238   1.000
    C99     C    0.31758   0.10770   0.71901   1.000
    C100    C    0.81720   0.10795   0.71890   1.000
    C101    C    0.23516   0.13547   0.77239   1.000
    C102    C    0.73482   0.13545   0.77233   1.000
    C103    C    0.16405   0.18702   0.74970   1.000
    C104    C    0.66366   0.18705   0.74979   1.000
    C105    C    0.08873   0.20893   0.79960   1.000
    C106    C    0.58844   0.20902   0.79987   1.000
    C107    C    0.08558   0.17769   0.86995   1.000
    C108    C    0.58542   0.17778   0.87000   1.000
    C109    C    0.22649   0.10737   0.84461   1.000
    C110    C    0.72624   0.10726   0.84451   1.000
    C111    C    0.48099   0.31539   0.52730   1.000
    C112    C    0.98072   0.31524   0.52724   1.000
    C113    C    0.49656   0.26857   0.58847   1.000
    C114    C    0.99630   0.26861   0.58854   1.000
    C115    C    0.47841   0.16422   0.55262   1.000
    C116    C    0.97780   0.16436   0.55290   1.000
    C117    C    0.44438   0.10030   0.45409   1.000
    C118    C    0.94354   0.10037   0.45448   1.000
    C119    C    0.42873   0.14343   0.39285   1.000
    C120    C    0.92798   0.14334   0.39307   1.000
    C121    C    0.44699   0.24989   0.42703   1.000
    C122    C    0.94650   0.24970   0.42701   1.000
    C123    C    0.43198   0.28674   0.35779   1.000
    C124    C    0.93151   0.28640   0.35764   1.000
    C125    C    0.43271   0.38990   0.28113   1.000
    C126    C    0.93240   0.38954   0.28090   1.000
    C127    C    0.01479   0.36341   0.22747   1.000
    C128    C    0.51500   0.36341   0.22750   1.000
    C129    C    0.08604   0.43715   0.24993   1.000
    C130    C    0.58630   0.43705   0.24982   1.000
    C131    C    0.16125   0.40874   0.19984   1.000
    C132    C    0.66144   0.40853   0.19965   1.000
    C133    C    0.16417   0.30729   0.12965   1.000
    C134    C    0.66426   0.30704   0.12952   1.000
    C135    C    0.02327   0.26312   0.15540   1.000
    C136    C    0.52339   0.26306   0.15554   1.000
    C137    C    0.73187   0.21229   0.52709   1.000
    C138    C    0.74681   0.32008   0.58820   1.000
    C139    C    0.72737   0.38863   0.55240   1.000
    C140    C    0.69275   0.35425   0.45405   1.000
    C141    C    0.67762   0.25003   0.39286   1.000
    C142    C    0.69700   0.17770   0.42694   1.000
    C143    C    0.68198   0.07181   0.35778   1.000
    C144    C    0.68280   0.89221   0.28124   1.000
    C145    C    0.76508   0.86466   0.22762   1.000
    C146    C    0.83633   0.81310   0.25007   1.000
    C147    C    0.91151   0.79126   0.19995   1.000
    C148    C    0.91439   0.82256   0.12960   1.000
    C149    C    0.77349   0.89286   0.15541   1.000
    C150    C    0.01800   0.68463   0.47255   1.000
    C151    C    0.51932   0.68492   0.47267   1.000
    C152    C    0.00297   0.73136   0.41120   1.000
    C153    C    0.50387   0.73166   0.41146   1.000
    C154    C    0.02229   0.83546   0.44685   1.000
    C155    C    0.52260   0.83589   0.44714   1.000
    C156    C    0.05711   0.89921   0.54520   1.000
    C157    C    0.55696   0.89978   0.54558   1.000
    C158    C    0.07245   0.85611   0.60650   1.000
    C159    C    0.57233   0.85672   0.60692   1.000
    C160    C    0.05308   0.74988   0.57262   1.000
    C161    C    0.55356   0.75039   0.57291   1.000
    C162    C    0.06807   0.71314   0.64196   1.000
    C163    C    0.56843   0.71359   0.64222   1.000
    C164    C    0.06710   0.61012   0.71876   1.000
    C165    C    0.56724   0.61055   0.71895   1.000
    C166    C    0.48492   0.63693   0.77251   1.000
    C167    C    0.98480   0.63671   0.77240   1.000
    C168    C    0.41367   0.56324   0.75021   1.000
    C169    C    0.91339   0.56317   0.75008   1.000
    C170    C    0.33847   0.59175   0.80030   1.000
    C171    C    0.83826   0.59183   0.80026   1.000
    C172    C    0.33559   0.69323   0.87040   1.000
    C173    C    0.83556   0.69332   0.87040   1.000
    C174    C    0.47649   0.73727   0.84449   1.000
    N175    N    0.65306   0.12737   0.89218   1.000
    N176    N    0.45026   0.37936   0.37080   1.000
    N177    N    0.95022   0.37888   0.37050   1.000
    N178    N    0.09645   0.23526   0.10777   1.000
    N179    N    0.59651   0.23510   0.10779   1.000
    N180    N    0.70065   0.99220   0.37081   1.000
    N181    N    0.84666   0.87290   0.10773   1.000
    N182    N    0.04948   0.62064   0.62906   1.000
    N183    N    0.54958   0.62114   0.62930   1.000
    N184    N    0.40331   0.76521   0.89216   1.000
    N185    N    0.90341   0.76517   0.89219   1.000
    Cl186   Cl   0.54723   0.99625   0.10700   1.000
    Cl187   Cl   0.70253   0.88939   0.89300   1.000
    Cl188   Cl   0.79731   0.11101   0.10708   1.000
    O189    O    0.25338   0.84957   0.43506   1.000
    O190    O    0.75317   0.84962   0.43499   1.000
    O191    O    0.49682   0.41473   0.56520   1.000
    O192    O    0.99657   0.41456   0.56502   1.000
    O193    O    0.74902   0.15079   0.56490   1.000
    O194    O    0.00056   0.58556   0.43491   1.000
    O195    O    0.50336   0.58560   0.43486   1.000
loop_
    _geom_bond_atom_site_label_1
    _geom_bond_atom_site_label_2
    _geom_bond_distance
    _geom_bond_site_symmetry_2
    _ccdc_geom_bond_type
    Cd0    Cl186     2.62979  1_545   S
    Cd0    Cl188     2.75045      .   S
    Cd0    N179      2.43647      .   S
    Cd0    N175      2.43647  1_554   S
    Cd0    Cl187     2.63180  1_544   S
    H45    C134      1.09004      .   S
    H57    C148      1.08953      .   S
    H44    C133      1.09005      .   S
    N181   C148      1.34763      .   S
    N181   C149      1.34777      .   S
    N181   Cd1       1.17416      .   S
    N178   C133      1.34802      .   S
    N178   C135      1.34767      .   S
    N179   C134      1.34796      .   S
    N179   C136      1.34788      .   S
    C134   C132      1.39074      .   S
    C148   C147      1.39154      .   S
    C133   C131      1.39079      .   S
    H58    C149      1.09197      .   S
    H47    C135      1.09235  1_655   S
    H46    C136      1.09206      .   S
    C135   C127      1.40147      .   S
    C149   C145      1.40141      .   S
    C136   C128      1.40134      .   S
    C132   H43       1.09009      .   S
    C132   C130      1.39403      .   S
    C131   H42       1.09010      .   S
    C131   C129      1.39423      .   S
    C147   H56       1.09009      .   S
    C147   C146      1.39414      .   S
    C127   C129      1.40020      .   S
    C127   C126      1.51396  1_455   S
    C128   C130      1.40012      .   S
    C128   C125      1.51440      .   S
    C145   C146      1.40018      .   S
    C145   C144      1.51427      .   S
    H37    C126      1.10039      .   S
    H36    C125      1.10068      .   S
    H53    C144      1.10071      .   S
    C130   H41       1.09007      .   S
    C129   H40       1.09047      .   S
    C146   H55       1.09035      .   S
    C126   H39       1.09528      .   S
    C126   N177      1.48263      .   S
    C125   H38       1.09532      .   S
    C125   N176      1.48249      .   S
    C144   H54       1.09543      .   S
    C144   N180      1.48272      .   S
    H35    C124      1.10047      .   S
    H34    C123      1.10009      .   S
    H52    C143      1.10011      .   S
    H32    C119      1.09161      .   S
    H51    C141      1.09172      .   S
    H33    C120      1.09213      .   S
    H60    C152      1.08973  1_655   S
    H4     C83       1.09073      .   S
    H59    C153      1.09057      .   S
    H5     C84       1.09056      .   S
    C124   N177      1.30861      .   S
    C124   C122      1.42443      .   S
    C143   N180      1.30869  1_545   S
    C143   C142      1.42422      .   S
    C123   N176      1.30861      .   S
    C123   C121      1.42412      .   S
    N176   Cu3       2.02111      .   S
    N180   Cu2       2.02029  1_565   S
    C119   C121      1.41732      .   S
    C119   C117      1.38116      .   S
    C141   C142      1.41722      .   S
    C141   C140      1.38124      .   S
    C120   C122      1.41711      .   S
    C120   C118      1.38149      .   S
    H61    C154      1.09066      .   S
    H6     C89       1.09045      .   S
    H62    C155      1.09058      .   S
    H7     C90       1.09053      .   S
    C152   C154      1.38381      .   S
    C152   C150      1.42422      .   S
    C83    C89       1.38353      .   S
    C83    C81       1.42283      .   S
    C153   C155      1.38422      .   S
    C153   C151      1.42289      .   S
    C84    C90       1.38421      .   S
    C84    C82       1.42306      .   S
    H50    C140      1.16983      .   S
    C142   C137      1.43188      .   S
    H30    C117      1.08861      .   S
    C122   C112      1.43160      .   S
    C121   C111      1.43133      .   S
    H31    C118      1.08858      .   S
    O195   C151      1.30810      .   S
    O195   Cu3       1.96848      .   S
    O194   C150      1.30800      .   S
    O190   C82       1.30805      .   S
    O190   Cu2       1.97006  1_565   S
    O189   C81       1.30811      .   S
    C154   C156      1.40738      .   S
    C89    C91       1.40815      .   S
    C155   C157      1.40727      .   S
    C90    C92       1.40741      .   S
    C140   C139      1.40639      .   S
    C117   C115      1.40737      .   S
    C118   C116      1.40695      .   S
    C150   C160      1.43179      .   S
    C151   C161      1.43165      .   S
    C81    C95       1.43045      .   S
    C82    C96       1.43173      .   S
    Cu2    O193      1.96897      .   S
    Cu2    N87       2.02069      .   S
    Cu3    O191      1.96948      .   S
    Cu3    N183      2.02205      .   S
    C137   O193      1.30815      .   S
    C137   C138      1.42283      .   S
    C112   O192      1.30808      .   S
    C112   C114      1.42293      .   S
    C111   O191      1.30799      .   S
    C111   C113      1.42349      .   S
    C156   H63       1.08859      .   S
    C156   C158      1.38116      .   S
    C91    H8        1.08798      .   S
    C91    C93       1.38142      .   S
    C157   H64       1.08868      .   S
    C157   C159      1.38143      .   S
    C92    H9        1.08861      .   S
    C92    C94       1.38107      .   S
    C139   C138      1.38496      .   S
    C139   H49       1.09067      .   S
    C115   C113      1.38415      .   S
    C115   H28       1.09052      .   S
    C116   C114      1.38400      .   S
    C116   H29       1.09091      .   S
    C160   C158      1.41742      .   S
    C160   C162      1.42434      .   S
    C161   C159      1.41701      .   S
    C161   C163      1.42449      .   S
    C95    C93       1.41805      .   S
    C95    C97       1.42482      .   S
    C96    C94       1.41731      .   S
    C96    C98       1.42387      .   S
    C138   H48       1.09063      .   S
    C113   H27       1.09063      .   S
    C114   H26       1.09068  1_655   S
    C158   H65       1.09170      .   S
    C159   H66       1.09101      .   S
    C93    H10       1.09168      .   S
    C94    H11       1.09169      .   S
    N182   C162      1.30835      .   S
    N182   C164      1.48292      .   S
    N87    C98       1.30878  1_545   S
    N87    C100      1.48279      .   S
    N183   C163      1.30830      .   S
    N183   C165      1.48266      .   S
    N86    C97       1.30867  1_545   S
    N86    C99       1.48265      .   S
    C162   H67       1.10011      .   S
    C163   H68       1.10008      .   S
    C98    H13       1.10019      .   S
    C97    H12       1.10016      .   S
    H18    C103      1.09052      .   S
    H19    C104      1.09048      .   S
    H74    C169      1.09041      .   S
    H73    C168      1.09042      .   S
    H71    C164      1.09522      .   S
    H16    C99       1.09539      .   S
    H17    C100      1.09522      .   S
    H72    C165      1.09548      .   S
    C164   H69       1.10070      .   S
    C164   C167      1.51460  1_455   S
    C100   H15       1.10067      .   S
    C100   C102      1.51399      .   S
    C165   H70       1.10072      .   S
    C165   C166      1.51427      .   S
    C99    H14       1.10059      .   S
    C99    C101      1.51400      .   S
    C103   C101      1.40021      .   S
    C103   C105      1.39385      .   S
    C104   C102      1.40013      .   S
    C104   C106      1.39415      .   S
    C169   C167      1.40025      .   S
    C169   C171      1.39404      .   S
    C168   C166      1.40010      .   S
    C168   C170      1.39415      .   S
    C102   C110      1.40141      .   S
    C101   C109      1.40135      .   S
    C167   C85       1.40151      .   S
    C166   C174      1.40144      .   S
    H20    C105      1.08980      .   S
    H21    C106      1.09008      .   S
    H76    C171      1.09015      .   S
    H75    C170      1.09009      .   S
    C105   C107      1.39151      .   S
    C106   C108      1.38792      .   S
    C171   C173      1.39066      .   S
    C170   C172      1.39068      .   S
    C85    H79       1.09248  1_655   S
    C85    N185      1.34794      .   S
    C174   H80       1.09207      .   S
    C174   N184      1.34787      .   S
    C110   H25       1.09204      .   S
    C110   N175      1.34779      .   S
    C109   H24       1.09199      .   S
    C109   N88       1.34767      .   S
    C107   N88       1.34794      .   S
    C107   H22       1.09002      .   S
    C108   N175      1.34922      .   S
    C108   H23       1.09192      .   S
    C173   N185      1.34788      .   S
    C173   H78       1.09026      .   S
    C172   N184      1.34800      .   S
    C172   H77       1.09005      .   S
