# CIF file generated by openbabel 2.4.90, see http://openbabel.sf.net
data_I
_chemical_name_common ''
_cell_length_a 14.732
_cell_length_b 14.779
_cell_length_c 15.757
_cell_angle_alpha 117.881
_cell_angle_beta 97.495
_cell_angle_gamma 89.92
_space_group_name_H-M_alt 'P 1'
_space_group_name_Hall 'P 1'
loop_
    _symmetry_equiv_pos_as_xyz
    x,y,z
loop_
    _atom_site_label
    _atom_site_type_symbol
    _atom_site_fract_x
    _atom_site_fract_y
    _atom_site_fract_z
    _atom_site_occupancy
    Cd0     Cd   0.37483   0.94237   0.99976   1.000
    H1      H    0.27523   0.34596   0.66450   1.000
    H2      H    0.23965   0.47060   0.60188   1.000
    H3      H    0.17741   0.40907   0.42786   1.000
    H4      H    0.15027   0.22126   0.31689   1.000
    H5      H    0.12315   0.89645   0.23393   1.000
    H6      H    0.16783   0.83348   0.30254   1.000
    H7      H    0.33240   0.79215   0.30730   1.000
    H8      H    0.46809   0.75095   0.21527   1.000
    H9      H    0.47224   0.80872   0.08939   1.000
    H10     H    0.21987   0.93296   0.13479   1.000
    C11     C    0.23225   0.21196   0.52735   1.000
    C12     C    0.24743   0.31972   0.58857   1.000
    C13     C    0.22797   0.38840   0.55301   1.000
    C14     C    0.19288   0.35417   0.45473   1.000
    C15     C    0.17743   0.24999   0.39347   1.000
    C16     C    0.19694   0.17750   0.42734   1.000
    C17     C    0.18291   0.89202   0.28130   1.000
    C18     C    0.26518   0.86465   0.22769   1.000
    C19     C    0.33649   0.81308   0.25004   1.000
    C20     C    0.41158   0.79123   0.19978   1.000
    C21     C    0.41434   0.82259   0.12951   1.000
    C22     C    0.27350   0.89296   0.15553   1.000
    N23     N    0.20061   0.99197   0.37096   1.000
    N24     N    0.34658   0.87298   0.10772   1.000
    Cl25    Cl   0.20235   0.88929   0.89283   1.000
    Cl26    Cl   0.45255   0.00396   0.89272   1.000
    Cl27    Cl   0.29739   0.11108   0.10676   1.000
    O28     O    0.24970   0.15036   0.56499   1.000
loop_
    _geom_bond_atom_site_label_1
    _geom_bond_atom_site_label_2
    _geom_bond_distance
    _geom_bond_site_symmetry_2
    _ccdc_geom_bond_type
    H9     C21       1.09005      .   S
    Cl27   Cd0       2.63117  1_544   S
    N24    C21       1.34793      .   S
    N24    C22       1.34774      .   S
    N24    Cd0       2.43646  1_554   S
    C21    C20       1.39069      .   S
    H10    C22       1.09198      .   S
    C22    C18       1.40153      .   S
    C20    H8        1.09013      .   S
    C20    C19       1.39417      .   S
    C18    C19       1.40026      .   S
    C18    C17       1.51399      .   S
    H5     C17       1.10039      .   S
    C19    H7        1.09032      .   S
    C17    H6        1.09568      .   S
    C17    N23       1.48297      .   S
    H4     C15       1.09167      .   S
    C15    C16       1.41742      .   S
    C15    C14       1.38121      .   S
    C16    C11       1.43163      .   S
    H3     C14       1.08861      .   S
    C14    C13       1.40732      .   S
    C11    O28       1.30806      .   S
    C11    C12       1.42302      .   S
    C13    C12       1.38405      .   S
    C13    H2        1.09059      .   S
    C12    H1        1.09004      .   S
    Cl26   Cd0       2.63182  1_545   S
    Cl25   Cd0       2.75009      .   S
