# CIF file generated by openbabel 2.4.90, see http://openbabel.sf.net
data_I
_chemical_name_common ''
_cell_length_a 14.732
_cell_length_b 14.779
_cell_length_c 15.757
_cell_angle_alpha 117.881
_cell_angle_beta 97.495
_cell_angle_gamma 89.92
_space_group_name_H-M_alt 'P 1'
_space_group_name_Hall 'P 1'
loop_
    _symmetry_equiv_pos_as_xyz
    x,y,z
loop_
    _atom_site_label
    _atom_site_type_symbol
    _atom_site_fract_x
    _atom_site_fract_y
    _atom_site_fract_z
    _atom_site_occupancy
    Cd0     Cd   0.37483   0.94237   0.99976   1.000
    Cu1     Cu   0.25043   0.99987   0.50010   1.000
    Cd2     Cd   0.12484   0.05802   0.30000   1.000
    H3      H    0.27523   0.34596   0.66450   1.000
    H4      H    0.23965   0.47060   0.60188   1.000
    H5      H    0.17741   0.40907   0.42786   1.000
    H6      H    0.15027   0.22126   0.31689   1.000
    H7      H    0.15199   0.05690   0.28467   1.000
    H8      H    0.12315   0.89645   0.23393   1.000
    H9      H    0.16783   0.83348   0.30254   1.000
    H10     H    0.33240   0.79215   0.30730   1.000
    H11     H    0.46809   0.75095   0.21527   1.000
    H12     H    0.47224   0.80872   0.08939   1.000
    H13     H    0.21987   0.93296   0.13479   1.000
    C14     C    0.23225   0.21196   0.52735   1.000
    C15     C    0.24743   0.31972   0.58857   1.000
    C16     C    0.22797   0.38840   0.55301   1.000
    C17     C    0.19288   0.35417   0.45473   1.000
    C18     C    0.17743   0.24999   0.39347   1.000
    C19     C    0.19694   0.17750   0.42734   1.000
    C20     C    0.18190   0.07166   0.35805   1.000
    C21     C    0.18291   0.89202   0.28130   1.000
    C22     C    0.26518   0.86465   0.22769   1.000
    C23     C    0.33649   0.81308   0.25004   1.000
    C24     C    0.41158   0.79123   0.19978   1.000
    C25     C    0.41434   0.82259   0.12951   1.000
    C26     C    0.27350   0.89296   0.15553   1.000
    N27     N    0.20061   0.99197   0.37096   1.000
    N28     N    0.34658   0.87298   0.10772   1.000
    Cl29    Cl   0.20235   0.88929   0.89283   1.000
    Cl30    Cl   0.45255   0.00396   0.89272   1.000
    Cl31    Cl   0.29739   0.11108   0.10676   1.000
    O32     O    0.24970   0.15036   0.56499   1.000
loop_
    _geom_bond_atom_site_label_1
    _geom_bond_atom_site_label_2
    _geom_bond_distance
    _geom_bond_site_symmetry_2
    _ccdc_geom_bond_type
    H12    C25       1.09005      .   S
    Cl31   Cd0       2.63117  1_544   S
    N28    C25       1.34793      .   S
    N28    C26       1.34774      .   S
    N28    Cd0       2.43646  1_554   S
    C25    C24       1.39069      .   S
    H13    C26       1.09198      .   S
    C26    C22       1.40153      .   S
    C24    H11       1.09013      .   S
    C24    C23       1.39417      .   S
    C22    C23       1.40026      .   S
    C22    C21       1.51399      .   S
    H8     C21       1.10039      .   S
    C23    H10       1.09032      .   S
    C21    H9        1.09568      .   S
    C21    N27       1.48297      .   S
    H7     Cd2       0.48996      .   S
    H6     C18       1.09167      .   S
    C20    N27       1.30877  1_545   S
    C20    C19       1.42425      .   S
    C20    Cd2       1.10068      .   S
    N27    Cu1       2.02020      .   S
    C18    C19       1.41742      .   S
    C18    C17       1.38121      .   S
    C19    C14       1.43163      .   S
    H5     C17       1.08861      .   S
    C17    C16       1.40732      .   S
    Cu1    O32       1.96673  1_565   S
    C14    O32       1.30806      .   S
    C14    C15       1.42302      .   S
    C16    C15       1.38405      .   S
    C16    H4        1.09059      .   S
    C15    H3        1.09004      .   S
    Cl30   Cd0       2.63182  1_545   S
    Cl29   Cd0       2.75009      .   S
