# CIF file generated by openbabel 2.4.90, see http://openbabel.sf.net
data_I
_chemical_name_common ''
_cell_length_a 14.732
_cell_length_b 14.779
_cell_length_c 15.757
_cell_angle_alpha 117.881
_cell_angle_beta 97.495
_cell_angle_gamma 89.92
_space_group_name_H-M_alt 'P 1'
_space_group_name_Hall 'P 1'
loop_
    _symmetry_equiv_pos_as_xyz
    x,y,z
loop_
    _atom_site_label
    _atom_site_type_symbol
    _atom_site_fract_x
    _atom_site_fract_y
    _atom_site_fract_z
    _atom_site_occupancy
    Cu0     Cu   0.25043   0.99987   0.50010   1.000
    Cd1     Cd   0.12484   0.05802   0.30000   1.000
    H2      H    0.15199   0.05690   0.28467   1.000
    C3      C    0.18190   0.07166   0.35805   1.000
    Ts4     Ts   0.26684   0.00248   0.54322   1.000
    Ts5     Ts   0.23382   0.99724   0.45705   1.000
    Ts6     Ts   0.25141   0.94977   0.47842   1.000
    Ts7     Ts   0.25019   0.05004   0.52173   1.000
    Ts8     Ts   0.18692   0.10694   0.38115   1.000
    Ts9     Ts   0.18814   0.04510   0.36235   1.000
loop_
    _geom_bond_atom_site_label_1
    _geom_bond_atom_site_label_2
    _geom_bond_distance
    _geom_bond_site_symmetry_2
    _ccdc_geom_bond_type
    H2     Cd1       0.48996      .   S
    C3     Cd1       1.10068      .   S
    Cu0    Ts4       0.67403  1_565   S
    Cu0    Ts5       0.67340      .   S
    Cu0    Ts6       0.65562      .   S
    Cu0    Ts7       0.65558  1_565   S
    C3     Ts8       0.47475      .   S
    C3     Ts9       0.43626      .   S
