# CIF file generated by openbabel 2.4.90, see http://openbabel.sf.net
data_I
_chemical_name_common ''
_cell_length_a 14.732
_cell_length_b 14.779
_cell_length_c 15.757
_cell_angle_alpha 117.881
_cell_angle_beta 97.495
_cell_angle_gamma 89.92
_space_group_name_H-M_alt 'P 1'
_space_group_name_Hall 'P 1'
loop_
    _symmetry_equiv_pos_as_xyz
    x,y,z
loop_
    _atom_site_label
    _atom_site_type_symbol
    _atom_site_fract_x
    _atom_site_fract_y
    _atom_site_fract_z
    _atom_site_occupancy
    Cu0     Cu   0.25043   0.99987   0.50010   1.000
    Cd1     Cd   0.12484   0.05802   0.30000   1.000
    H2      H    0.15199   0.05690   0.28467   1.000
    C3      C    0.18190   0.07166   0.35805   1.000
loop_
    _geom_bond_atom_site_label_1
    _geom_bond_atom_site_label_2
    _geom_bond_distance
    _geom_bond_site_symmetry_2
    _ccdc_geom_bond_type
    H2     Cd1       0.48996      .   S
    C3     Cd1       1.10068      .   S
