# CIF file generated by openbabel 2.4.90, see http://openbabel.sf.net
data_I
_chemical_name_common ''
_cell_length_a 22.915
_cell_length_b 13.727
_cell_length_c 18.178
_cell_angle_alpha 100.366
_cell_angle_beta 89.956
_cell_angle_gamma 114.764
_space_group_name_H-M_alt 'P 1'
_space_group_name_Hall 'P 1'
loop_
    _symmetry_equiv_pos_as_xyz
    x,y,z
loop_
    _atom_site_label
    _atom_site_type_symbol
    _atom_site_fract_x
    _atom_site_fract_y
    _atom_site_fract_z
    _atom_site_occupancy
    Zn0     Zn   0.99100   0.39815   0.40315   1.000
    Zn1     Zn   0.29219   0.60228   0.09688   1.000
    Zn2     Zn   0.79218   0.60228   0.09688   1.000
    Zn3     Zn   0.00899   0.60192   0.59680   1.000
    Zn4     Zn   0.50899   0.60192   0.59683   1.000
    Zn5     Zn   0.20781   0.39779   0.90310   1.000
    Zn6     Zn   0.70780   0.39778   0.90310   1.000
    H7      H    0.07566   0.64498   0.29604   1.000
    H8      H    0.57565   0.64498   0.29604   1.000
    H9      H    0.11830   0.79907   0.22554   1.000
    H10     H    0.61829   0.79907   0.22550   1.000
    H11     H    0.11868   0.02323   0.42388   1.000
    H12     H    0.61868   0.02324   0.42389   1.000
    H13     H    0.07406   0.86848   0.49361   1.000
    H14     H    0.57405   0.86848   0.49361   1.000
    H15     H    0.39510   0.33969   0.13854   1.000
    H16     H    0.89509   0.33970   0.13854   1.000
    H17     H    0.31045   0.20486   0.03910   1.000
    H18     H    0.81044   0.20486   0.03916   1.000
    H19     H    0.31097   0.94058   0.13483   1.000
    H20     H    0.81096   0.94058   0.13482   1.000
    H21     H    0.39379   0.07735   0.23655   1.000
    H22     H    0.89378   0.07735   0.23655   1.000
    H23     H    0.07039   0.31038   0.48672   1.000
    H24     H    0.57038   0.31038   0.48672   1.000
    H25     H    0.17941   0.31139   0.48786   1.000
    H26     H    0.67940   0.31139   0.48786   1.000
    H27     H    0.21453   0.47756   0.29980   1.000
    H28     H    0.71452   0.47756   0.29980   1.000
    H29     H    0.10386   0.46887   0.30778   1.000
    H30     H    0.60384   0.46887   0.30778   1.000
    H31     H    0.24649   0.24656   0.43475   1.000
    Zn32    Zn   0.49100   0.39815   0.40315   1.000
    H33     H    0.74648   0.24656   0.43475   1.000
    H34     H    0.35820   0.26331   0.44050   1.000
    H35     H    0.85819   0.26331   0.44050   1.000
    H36     H    0.42677   0.54826   0.35615   1.000
    H37     H    0.92676   0.54826   0.35615   1.000
    H38     H    0.31721   0.54401   0.34534   1.000
    H39     H    0.81720   0.54401   0.34530   1.000
    H40     H    0.25296   0.35540   0.20391   1.000
    H41     H    0.75295   0.35540   0.20391   1.000
    H42     H    0.21879   0.20129   0.27434   1.000
    H43     H    0.71877   0.20129   0.27434   1.000
    H44     H    0.10707   0.97670   0.07605   1.000
    H45     H    0.60705   0.97671   0.07606   1.000
    H46     H    0.13961   0.13146   0.00639   1.000
    H47     H    0.63959   0.13146   0.00639   1.000
    H48     H    0.22561   0.66069   0.36164   1.000
    H49     H    0.72560   0.66069   0.36164   1.000
    H50     H    0.20826   0.79524   0.46101   1.000
    H51     H    0.70824   0.79524   0.46100   1.000
    H52     H    0.34069   0.05981   0.36494   1.000
    H53     H    0.84066   0.05982   0.36493   1.000
    H54     H    0.35522   0.92331   0.26323   1.000
    H55     H    0.85520   0.92331   0.26322   1.000
    H56     H    0.41548   0.68956   0.01313   1.000
    H57     H    0.91547   0.68956   0.01313   1.000
    H58     H    0.02403   0.68870   0.01202   1.000
    H59     H    0.52403   0.68870   0.01202   1.000
    H60     H    0.47570   0.52295   0.20029   1.000
    H61     H    0.97569   0.52296   0.20029   1.000
    H62     H    0.36936   0.53158   0.19233   1.000
    H63     H    0.86936   0.53159   0.19233   1.000
    H64     H    0.12361   0.75367   0.06507   1.000
    H65     H    0.62360   0.75366   0.06507   1.000
    H66     H    0.22697   0.73708   0.05939   1.000
    H67     H    0.72696   0.73708   0.05939   1.000
    H68     H    0.15259   0.45239   0.14405   1.000
    H69     H    0.65258   0.45239   0.14405   1.000
    H70     H    0.04512   0.45650   0.15483   1.000
    H71     H    0.54510   0.45651   0.15484   1.000
    H72     H    0.42434   0.35509   0.70390   1.000
    H73     H    0.92433   0.35509   0.70394   1.000
    H74     H    0.38170   0.20099   0.77443   1.000
    H75     H    0.88169   0.20099   0.77443   1.000
    H76     H    0.38131   0.97683   0.57608   1.000
    H77     H    0.88129   0.97683   0.57608   1.000
    H78     H    0.42594   0.13159   0.50636   1.000
    H79     H    0.92592   0.13159   0.50636   1.000
    H80     H    0.10490   0.66038   0.86144   1.000
    H81     H    0.60489   0.66037   0.86144   1.000
    H82     H    0.18956   0.79521   0.96081   1.000
    H83     H    0.68954   0.79521   0.96081   1.000
    H84     H    0.18905   0.05949   0.86514   1.000
    H85     H    0.68903   0.05949   0.86514   1.000
    H86     H    0.10624   0.92272   0.76342   1.000
    H87     H    0.60622   0.92272   0.76342   1.000
    H88     H    0.42962   0.68969   0.51325   1.000
    H89     H    0.92960   0.68969   0.51325   1.000
    H90     H    0.32059   0.68867   0.51211   1.000
    H91     H    0.82058   0.68868   0.51211   1.000
    H92     H    0.28547   0.52251   0.70018   1.000
    H93     H    0.78546   0.52251   0.70018   1.000
    H94     H    0.39615   0.53120   0.69220   1.000
    H95     H    0.89613   0.53120   0.69220   1.000
    H96     H    0.25351   0.75350   0.56522   1.000
    H97     H    0.75349   0.75351   0.56522   1.000
    H98     H    0.14180   0.73676   0.55947   1.000
    H99     H    0.64179   0.73676   0.55948   1.000
    C100    C    0.79728   0.70274   0.24245   1.000
    C101    C    0.29181   0.78427   0.30628   1.000
    C102    C    0.79178   0.78427   0.30620   1.000
    C103    C    0.25108   0.74821   0.36310   1.000
    H104    H    0.07323   0.45181   0.64380   1.000
    H105    H    0.57322   0.45181   0.64382   1.000
    H106    H    0.18280   0.45606   0.65464   1.000
    H107    H    0.68278   0.45606   0.65464   1.000
    H108    H    0.24705   0.64466   0.79607   1.000
    H109    H    0.74703   0.64467   0.79607   1.000
    H110    H    0.28122   0.79877   0.72563   1.000
    H111    H    0.78120   0.79878   0.72560   1.000
    H112    H    0.39294   0.02336   0.92390   1.000
    H113    H    0.89295   0.02336   0.92391   1.000
    H114    H    0.36041   0.86861   0.99358   1.000
    H115    H    0.86040   0.86861   0.99358   1.000
    H116    H    0.27439   0.33938   0.63834   1.000
    H117    H    0.77438   0.33938   0.63834   1.000
    H118    H    0.29174   0.20484   0.53897   1.000
    H119    H    0.79174   0.20484   0.53898   1.000
    H120    H    0.15931   0.94026   0.63503   1.000
    H121    H    0.65931   0.94026   0.63500   1.000
    H122    H    0.14478   0.07676   0.73670   1.000
    H123    H    0.64477   0.07676   0.73675   1.000
    H124    H    0.08452   0.31050   0.98684   1.000
    H125    H    0.58451   0.31051   0.98680   1.000
    H126    H    0.47596   0.31136   0.98796   1.000
    H127    H    0.97596   0.31136   0.98795   1.000
    H128    H    0.02430   0.47711   0.79969   1.000
    H129    H    0.52429   0.47711   0.79968   1.000
    H130    H    0.13064   0.46849   0.80765   1.000
    H131    H    0.63063   0.46849   0.80760   1.000
    C132    C    0.17022   0.97190   0.86404   1.000
    C133    C    0.67020   0.97190   0.86405   1.000
    C134    C    0.12424   0.89636   0.80779   1.000
    C135    C    0.62422   0.89636   0.80779   1.000
    C136    C    0.39598   0.65441   0.55379   1.000
    H137    H    0.37639   0.24640   0.93490   1.000
    H138    H    0.87638   0.24640   0.93491   1.000
    H139    H    0.27304   0.26299   0.94058   1.000
    H140    H    0.77303   0.26299   0.94050   1.000
    H141    H    0.34741   0.54769   0.85593   1.000
    H142    H    0.84740   0.54769   0.85593   1.000
    H143    H    0.45489   0.54356   0.84514   1.000
    H144    H    0.95488   0.54356   0.84514   1.000
    C145    C    0.04464   0.65407   0.43974   1.000
    C146    C    0.54466   0.65409   0.43975   1.000
    C147    C    0.07120   0.74719   0.39852   1.000
    C148    C    0.57117   0.74718   0.39851   1.000
    C149    C    0.08440   0.72799   0.32296   1.000
    C150    C    0.58438   0.72799   0.32296   1.000
    C151    C    0.10795   0.81286   0.28392   1.000
    C152    C    0.60793   0.81285   0.28392   1.000
    C153    C    0.11946   0.91962   0.32036   1.000
    C154    C    0.61945   0.91962   0.32036   1.000
    C155    C    0.10820   0.93965   0.39636   1.000
    C156    C    0.60819   0.93965   0.39636   1.000
    C157    C    0.08349   0.85390   0.43488   1.000
    C158    C    0.58348   0.85391   0.43488   1.000
    C159    C    0.44591   0.29788   0.25755   1.000
    C160    C    0.94589   0.29788   0.25756   1.000
    C161    C    0.39968   0.21626   0.19371   1.000
    C162    C    0.89967   0.21626   0.19370   1.000
    C163    C    0.37691   0.25218   0.13696   1.000
    C164    C    0.87689   0.25218   0.13697   1.000
    C165    C    0.33036   0.17768   0.08100   1.000
    C166    C    0.83035   0.17768   0.08129   1.000
    C167    C    0.30631   0.06463   0.08013   1.000
    C168    C    0.80630   0.06463   0.08014   1.000
    C169    C    0.32980   0.02817   0.13593   1.000
    C170    C    0.82979   0.02817   0.13592   1.000
    C171    C    0.37578   0.10371   0.19218   1.000
    C172    C    0.87577   0.10371   0.19218   1.000
    C173    C    0.10402   0.34565   0.44618   1.000
    C174    C    0.60401   0.34564   0.44618   1.000
    C175    C    0.16467   0.34576   0.44572   1.000
    C176    C    0.66466   0.34576   0.44573   1.000
    C177    C    0.20669   0.39339   0.39297   1.000
    C178    C    0.70668   0.39339   0.39296   1.000
    C179    C    0.18433   0.43824   0.34189   1.000
    C180    C    0.68432   0.43825   0.34189   1.000
    C181    C    0.12293   0.43472   0.34619   1.000
    C182    C    0.62291   0.43471   0.34619   1.000
    C183    C    0.27216   0.39713   0.39281   1.000
    C184    C    0.77214   0.39714   0.39281   1.000
    C185    C    0.28494   0.31692   0.41850   1.000
    C186    C    0.78493   0.31691   0.41849   1.000
    C187    C    0.34742   0.32541   0.42166   1.000
    C188    C    0.84740   0.32541   0.42160   1.000
    C189    C    0.38539   0.48371   0.37397   1.000
    C190    C    0.88538   0.48371   0.37398   1.000
    C191    C    0.32411   0.48095   0.36829   1.000
    C192    C    0.82409   0.48095   0.36829   1.000
    C193    C    0.21723   0.34609   0.06029   1.000
    C194    C    0.71725   0.34607   0.06027   1.000
    C195    C    0.19737   0.25296   0.10147   1.000
    C196    C    0.69734   0.25297   0.10148   1.000
    C197    C    0.22022   0.27229   0.17699   1.000
    C198    C    0.72023   0.27228   0.17699   1.000
    C199    C    0.20149   0.18741   0.21599   1.000
    C200    C    0.70146   0.18741   0.21600   1.000
    C201    C    0.15964   0.08052   0.17956   1.000
    C202    C    0.65964   0.08052   0.17956   1.000
    C203    C    0.13834   0.06037   0.10358   1.000
    C204    C    0.63831   0.06038   0.10359   1.000
    C205    C    0.15636   0.14613   0.06511   1.000
    C206    C    0.65636   0.14612   0.06510   1.000
    C207    C    0.29727   0.70273   0.24244   1.000
    C208    C    0.75108   0.74821   0.36311   1.000
    C209    C    0.24173   0.82256   0.41879   1.000
    C210    C    0.74171   0.82256   0.41878   1.000
    C211    C    0.27408   0.93562   0.41983   1.000
    C212    C    0.77407   0.93562   0.41983   1.000
    C213    C    0.31579   0.97222   0.36394   1.000
    C214    C    0.81576   0.97223   0.36392   1.000
    C215    C    0.32404   0.89683   0.30766   1.000
    C216    C    0.82404   0.89683   0.30767   1.000
    C217    C    0.43141   0.65441   0.05372   1.000
    C218    C    0.93141   0.65441   0.05372   1.000
    C219    C    0.49201   0.65437   0.05418   1.000
    C220    C    0.99201   0.65436   0.05418   1.000
    C221    C    0.01013   0.60690   0.10701   1.000
    C222    C    0.51012   0.60689   0.10701   1.000
    C223    C    0.46523   0.56212   0.15810   1.000
    C224    C    0.96522   0.56212   0.15813   1.000
    C225    C    0.40558   0.56560   0.15385   1.000
    C226    C    0.90557   0.56560   0.15385   1.000
    C227    C    0.07373   0.60321   0.10717   1.000
    C228    C    0.57372   0.60321   0.10717   1.000
    C229    C    0.12678   0.68342   0.08143   1.000
    C230    C    0.62677   0.68341   0.08143   1.000
    C231    C    0.18502   0.67500   0.07829   1.000
    C232    C    0.68501   0.67500   0.07829   1.000
    C233    C    0.14359   0.51685   0.12615   1.000
    C234    C    0.64358   0.51685   0.12615   1.000
    C235    C    0.08365   0.51953   0.13182   1.000
    C236    C    0.58365   0.51953   0.13182   1.000
    C237    C    0.45533   0.34598   0.56023   1.000
    C238    C    0.95531   0.34598   0.56022   1.000
    C239    C    0.42882   0.25288   0.60146   1.000
    C240    C    0.92881   0.25289   0.60147   1.000
    C241    C    0.41560   0.27208   0.67701   1.000
    C242    C    0.91559   0.27208   0.67701   1.000
    C243    C    0.39205   0.18721   0.71600   1.000
    C244    C    0.89205   0.18721   0.71606   1.000
    C245    C    0.38054   0.08044   0.67961   1.000
    C246    C    0.88052   0.08044   0.67961   1.000
    C247    C    0.39180   0.06042   0.60362   1.000
    C248    C    0.89178   0.06042   0.60361   1.000
    C249    C    0.41651   0.14616   0.56500   1.000
    C250    C    0.91649   0.14616   0.56509   1.000
    C251    C    0.05410   0.70219   0.74240   1.000
    C252    C    0.55410   0.70219   0.74242   1.000
    C253    C    0.10033   0.78381   0.80627   1.000
    C254    C    0.60031   0.78381   0.80628   1.000
    C255    C    0.12310   0.74789   0.86301   1.000
    C256    C    0.62309   0.74789   0.86301   1.000
    C257    C    0.16965   0.82239   0.91868   1.000
    C258    C    0.66963   0.82239   0.91869   1.000
    C259    C    0.19370   0.93544   0.91984   1.000
    C260    C    0.69369   0.93544   0.91980   1.000
    C261    C    0.89597   0.65442   0.55300   1.000
    C262    C    0.33534   0.65432   0.55425   1.000
    C263    C    0.83532   0.65431   0.55425   1.000
    C264    C    0.29331   0.60666   0.60700   1.000
    C265    C    0.79330   0.60668   0.60701   1.000
    C266    C    0.31567   0.56183   0.65809   1.000
    C267    C    0.81566   0.56183   0.65808   1.000
    C268    C    0.37708   0.56535   0.65370   1.000
    C269    C    0.87706   0.56536   0.65379   1.000
    C270    C    0.22785   0.60294   0.60717   1.000
    C271    C    0.72784   0.60293   0.60716   1.000
    C272    C    0.21506   0.68315   0.58140   1.000
    C273    C    0.71505   0.68316   0.58148   1.000
    C274    C    0.15259   0.67466   0.57831   1.000
    C275    C    0.65258   0.67466   0.57831   1.000
    C276    C    0.11461   0.51636   0.62600   1.000
    C277    C    0.61460   0.51636   0.62600   1.000
    C278    C    0.17590   0.51912   0.63160   1.000
    C279    C    0.67588   0.51912   0.63169   1.000
    C280    C    0.28276   0.65399   0.93970   1.000
    C281    C    0.78272   0.65401   0.93970   1.000
    C282    C    0.30264   0.74710   0.89850   1.000
    C283    C    0.80266   0.74709   0.89849   1.000
    C284    C    0.27977   0.72778   0.82299   1.000
    C285    C    0.77975   0.72779   0.82299   1.000
    C286    C    0.29852   0.81266   0.78398   1.000
    C287    C    0.79852   0.81265   0.78397   1.000
    C288    C    0.34036   0.91954   0.82041   1.000
    C289    C    0.84034   0.91954   0.82042   1.000
    C290    C    0.36168   0.93969   0.89630   1.000
    C291    C    0.86169   0.93968   0.89638   1.000
    C292    C    0.34364   0.85394   0.93487   1.000
    C293    C    0.84363   0.85394   0.93487   1.000
    C294    C    0.20273   0.29734   0.75754   1.000
    C295    C    0.70269   0.29733   0.75753   1.000
    C296    C    0.20819   0.21580   0.69370   1.000
    C297    C    0.70820   0.21581   0.69370   1.000
    C298    C    0.24892   0.25186   0.63680   1.000
    C299    C    0.74890   0.25186   0.63687   1.000
    C300    C    0.25827   0.17751   0.58119   1.000
    C301    C    0.75827   0.17752   0.58120   1.000
    C302    C    0.22592   0.06445   0.58015   1.000
    C303    C    0.72590   0.06446   0.58015   1.000
    C304    C    0.18421   0.02785   0.63604   1.000
    C305    C    0.68421   0.02785   0.63605   1.000
    C306    C    0.17595   0.10324   0.69231   1.000
    C307    C    0.67593   0.10324   0.69230   1.000
    C308    C    0.06858   0.34565   0.94625   1.000
    C309    C    0.56858   0.34565   0.94625   1.000
    C310    C    0.00798   0.34570   0.94579   1.000
    C311    C    0.50798   0.34570   0.94579   1.000
    C312    C    0.48987   0.39317   0.89296   1.000
    C313    C    0.98986   0.39317   0.89296   1.000
    C314    C    0.03477   0.43796   0.84185   1.000
    C315    C    0.53477   0.43795   0.84184   1.000
    C316    C    0.09442   0.43446   0.84613   1.000
    C317    C    0.59441   0.43446   0.84610   1.000
    C318    C    0.42627   0.39685   0.89280   1.000
    C319    C    0.92626   0.39686   0.89280   1.000
    C320    C    0.37322   0.31665   0.91850   1.000
    C321    C    0.87321   0.31665   0.91854   1.000
    C322    C    0.31499   0.32507   0.92168   1.000
    C323    C    0.81498   0.32508   0.92169   1.000
    C324    C    0.35642   0.48322   0.87383   1.000
    C325    C    0.85641   0.48323   0.87383   1.000
    C326    C    0.41635   0.48053   0.86816   1.000
    C327    C    0.91634   0.48053   0.86815   1.000
    N328    N    0.08316   0.38998   0.39766   1.000
    N329    N    0.58315   0.38999   0.39766   1.000
    N330    N    0.39772   0.40876   0.40149   1.000
    N331    N    0.89771   0.40876   0.40149   1.000
    N332    N    0.14234   0.01185   0.28580   1.000
    N333    N    0.64238   0.01185   0.28584   1.000
    N334    N    0.25821   0.98248   0.02672   1.000
    N335    N    0.75821   0.98248   0.02671   1.000
    N336    N    0.38828   0.61015   0.10230   1.000
    N337    N    0.88827   0.61015   0.10229   1.000
    N338    N    0.19353   0.59177   0.09859   1.000
    N339    N    0.69352   0.59177   0.09859   1.000
    N340    N    0.13659   0.98829   0.21406   1.000
    N341    N    0.63652   0.98829   0.21407   1.000
    N342    N    0.26708   0.01766   0.47320   1.000
    N343    N    0.76700   0.01765   0.47324   1.000
    N344    N    0.41685   0.61010   0.60232   1.000
    N345    N    0.91683   0.61009   0.60232   1.000
    N346    N    0.10228   0.59130   0.59849   1.000
    N347    N    0.60227   0.59131   0.59849   1.000
    N348    N    0.35761   0.98821   0.71413   1.000
    N349    N    0.85760   0.98821   0.71413   1.000
    N350    N    0.24181   0.01759   0.97325   1.000
    N351    N    0.74178   0.01759   0.97326   1.000
    N352    N    0.11173   0.38992   0.89760   1.000
    N353    N    0.61172   0.38993   0.89760   1.000
    N354    N    0.30647   0.40830   0.90139   1.000
    N355    N    0.80646   0.40830   0.90139   1.000
    N356    N    0.36347   0.01178   0.78590   1.000
    N357    N    0.86347   0.01177   0.78590   1.000
    N358    N    0.23292   0.98241   0.52669   1.000
    N359    N    0.73297   0.98243   0.52674   1.000
    O360    O    0.04206   0.56261   0.40623   1.000
    O361    O    0.54203   0.56261   0.40622   1.000
    O362    O    0.47980   0.39472   0.25001   1.000
    O363    O    0.97980   0.39472   0.25001   1.000
    O364    O    0.44607   0.26313   0.31890   1.000
    O365    O    0.94606   0.26313   0.31890   1.000
    O366    O    0.02683   0.67466   0.50504   1.000
    O367    O    0.52680   0.67466   0.50503   1.000
    O368    O    0.26025   0.43775   0.09384   1.000
    O369    O    0.76022   0.43775   0.09385   1.000
    O370    O    0.28274   0.60597   0.25005   1.000
    O371    O    0.78271   0.60596   0.25004   1.000
    O372    O    0.31497   0.73746   0.18110   1.000
    O373    O    0.81495   0.73746   0.18109   1.000
    O374    O    0.18918   0.32524   0.99494   1.000
    O375    O    0.68915   0.32525   0.99495   1.000
    O376    O    0.45796   0.43746   0.59376   1.000
    O377    O    0.95795   0.43746   0.59376   1.000
    O378    O    0.02020   0.60536   0.74998   1.000
    O379    O    0.52018   0.60536   0.74998   1.000
    O380    O    0.05394   0.73694   0.68108   1.000
    O381    O    0.55392   0.73694   0.68108   1.000
    O382    O    0.47318   0.32541   0.49494   1.000
    O383    O    0.97317   0.32542   0.49494   1.000
    O384    O    0.23976   0.56232   0.90614   1.000
    O385    O    0.73977   0.56231   0.90613   1.000
    O386    O    0.21727   0.39411   0.74994   1.000
    O387    O    0.71727   0.39411   0.74995   1.000
    O388    O    0.18504   0.26260   0.81880   1.000
    O389    O    0.68504   0.26261   0.81889   1.000
    O390    O    0.31084   0.67483   0.00503   1.000
    O391    O    0.81084   0.67482   0.00500   1.000
loop_
    _geom_bond_atom_site_label_1
    _geom_bond_atom_site_label_2
    _geom_bond_distance
    _geom_bond_site_symmetry_2
    _ccdc_geom_bond_type
    O391   Zn2       2.05050      .   S
    O391   C281      1.27701  1_554   S
    O390   Zn1       2.05008      .   S
    O390   C280      1.27702  1_554   S
    H46    C205      1.08894      .   S
    H47    C206      1.08889      .   S
    H58    C220      1.08971  1_455   S
    H59    C219      1.08958      .   S
    H57    C218      1.08925      .   S
    H56    C217      1.08929      .   S
    N335   C168      1.41277  1_565   S
    N335   N351      1.28028  1_564   S
    N334   C167      1.41270  1_565   S
    N334   N350      1.28030  1_564   S
    H17    C165      1.08296      .   S
    H18    C166      1.08619      .   S
    C218   C220      1.38901      .   S
    C218   N337      1.34700      .   S
    C217   C219      1.38900      .   S
    C217   N336      1.34709      .   S
    C220   C221      1.40420  1_655   S
    C219   C222      1.40410      .   S
    H66    C231      1.08945      .   S
    H67    C232      1.08944      .   S
    C194   O369      1.26984      .   S
    C194   C196      1.50265      .   S
    C194   O375      1.27709  1_554   S
    C193   O368      1.26986      .   S
    C193   C195      1.50266      .   S
    C193   O374      1.27711  1_554   S
    H65    C230      1.08885      .   S
    H64    C229      1.08886      .   S
    C206   C196      1.40297      .   S
    C206   C204      1.39071      .   S
    C205   C195      1.40297      .   S
    C205   C203      1.39062      .   S
    H44    C203      1.08959  1_565   S
    H45    C204      1.08960  1_565   S
    C231   C229      1.38719      .   S
    C231   N338      1.34830      .   S
    C232   C230      1.38719      .   S
    C232   N339      1.34831      .   S
    C167   C165      1.40956      .   S
    C167   C169      1.40643      .   S
    C168   C166      1.40859      .   S
    C168   C170      1.40627      .   S
    C165   C163      1.38992      .   S
    C166   C164      1.38678      .   S
    C229   C227      1.40426      .   S
    C230   C228      1.40425      .   S
    O368   Zn1       2.05185      .   S
    O369   Zn2       2.05181      .   S
    Zn1    N338      2.20485      .   S
    Zn1    N336      2.16011      .   S
    Zn1    O372      2.05599      .   S
    Zn2    N339      2.20481      .   S
    Zn2    N337      2.16022      .   S
    Zn2    O373      2.05585      .   S
    N338   C233      1.34804      .   S
    N339   C234      1.34803      .   S
    C195   C197      1.40812      .   S
    C196   C198      1.40825      .   S
    N337   C226      1.34891      .   S
    N336   C225      1.34885      .   S
    C203   C201      1.40455      .   S
    C204   C202      1.40457      .   S
    C221   C227      1.47937      .   S
    C221   C224      1.40521  1_455   S
    C222   C228      1.47934      .   S
    C222   C223      1.40459      .   S
    C228   C236      1.40570      .   S
    C227   C235      1.40570      .   S
    C234   C236      1.39242      .   S
    C234   H69       1.09002      .   S
    C233   C235      1.39244      .   S
    C233   H68       1.09002      .   S
    C236   H71       1.09231      .   S
    C235   H70       1.09222      .   S
    H20    C170      1.09038  1_565   S
    H19    C169      1.09039  1_565   S
    C170   C172      1.39134      .   S
    C169   C171      1.39133      .   S
    C163   H15       1.08898      .   S
    C163   C161      1.40665      .   S
    C164   H16       1.08901      .   S
    C164   C162      1.40653      .   S
    C226   C224      1.39022      .   S
    C226   H63       1.09002      .   S
    C225   C223      1.39016      .   S
    C225   H62       1.08999      .   S
    C223   H60       1.09162      .   S
    C224   H61       1.09112      .   S
    C198   H41       1.08925      .   S
    C198   C200      1.38646      .   S
    C197   H40       1.08928      .   S
    C197   C199      1.38649      .   S
    C202   N341      1.41439  1_545   S
    C202   C200      1.40828      .   S
    C201   N340      1.41437  1_545   S
    C201   C199      1.40828      .   S
    O373   C100      1.29000      .   S
    O372   C207      1.28987      .   S
    C171   C161      1.40127      .   S
    C171   H21       1.08728      .   S
    C172   C162      1.40127      .   S
    C172   H22       1.08736      .   S
    C162   C160      1.50472      .   S
    C161   C159      1.50463      .   S
    N340   N332      1.27882  1_565   S
    N341   N333      1.27935  1_565   S
    C199   H42       1.08775      .   S
    C200   H43       1.08763      .   S
    H10    C152      1.08847      .   S
    H9     C151      1.08772      .   S
    C207   O370      1.26088      .   S
    C207   C101      1.50489      .   S
    C100   O371      1.26084      .   S
    C100   C102      1.50411      .   S
    O363   C160      1.26082      .   S
    O362   C159      1.26081      .   S
    C159   O364      1.28999      .   S
    C160   O365      1.28989      .   S
    H55    C216      1.08732      .   S
    H54    C215      1.08727      .   S
    C152   C154      1.40829      .   S
    C152   C150      1.38644      .   S
    C151   C153      1.40832      .   S
    C151   C149      1.38646      .   S
    N332   C153      1.41488  1_545   S
    N333   C154      1.41448  1_545   S
    H7     C149      1.08921      .   S
    H8     C150      1.08921      .   S
    H28    C180      1.09102      .   S
    H27    C179      1.09107      .   S
    C102   C216      1.40106      .   S
    C102   C208      1.40758      .   S
    C101   C215      1.40129      .   S
    C101   C103      1.40664      .   S
    C215   C213      1.39141      .   S
    C216   C214      1.39135      .   S
    H30    C182      1.09004      .   S
    H29    C181      1.09003      .   S
    O364   Zn32      2.05498      .   S
    O365   Zn0       2.05498      .   S
    C154   C156      1.40463      .   S
    C153   C155      1.40462      .   S
    C149   C147      1.40833      .   S
    C150   C148      1.40825      .   S
    C179   C181      1.39021      .   S
    C179   C177      1.40508      .   S
    C180   C182      1.39021      .   S
    C180   C178      1.40505      .   S
    H39    C192      1.09264      .   S
    H38    C191      1.09221      .   S
    C182   N329      1.34881      .   S
    C181   N328      1.34888      .   S
    H37    C190      1.09005      .   S
    H36    C189      1.08999      .   S
    H48    C103      1.08894      .   S
    H49    C208      1.08894      .   S
    C103   C209      1.38676      .   S
    C208   C210      1.38676      .   S
    C214   H53       1.09036  1_565   S
    C214   C212      1.40645      .   S
    C213   H52       1.09039  1_565   S
    C213   C211      1.40642      .   S
    C192   C190      1.39243      .   S
    C192   C184      1.40561      .   S
    C191   C189      1.39241      .   S
    C191   C183      1.40571      .   S
    C189   N330      1.34807      .   S
    C190   N331      1.34804      .   S
    C184   C178      1.47934      .   S
    C184   C186      1.40431      .   S
    C183   C177      1.47937      .   S
    C183   C185      1.40430      .   S
    C178   C176      1.40414      .   S
    C177   C175      1.40396      .   S
    C156   H12       1.08956  1_565   S
    C156   C158      1.39068      .   S
    C155   H11       1.08954  1_565   S
    C155   C157      1.39066      .   S
    N328   Zn0       2.16261  1_455   S
    N328   C173      1.34697      .   S
    N329   Zn32      2.16216      .   S
    N329   C174      1.34704      .   S
    C148   C158      1.40299      .   S
    C148   C146      1.50261      .   S
    C147   C157      1.40294      .   S
    C147   C145      1.50266      .   S
    N330   Zn32      2.20317      .   S
    N330   C187      1.34825      .   S
    N331   Zn0       2.20327      .   S
    N331   C188      1.34778      .   S
    Zn0    O360      2.05196  1_655   S
    Zn0    O383      2.05050      .   S
    Zn32   O361      2.05189      .   S
    Zn32   O382      2.05055      .   S
    O361   C146      1.27008      .   S
    O360   C145      1.27010      .   S
    C186   C188      1.38711      .   S
    C186   H33       1.08890      .   S
    C185   C187      1.38715      .   S
    C185   H31       1.08885      .   S
    C210   C212      1.40857      .   S
    C210   H51       1.08614      .   S
    C209   C211      1.40857      .   S
    C209   H50       1.08613      .   S
    C211   N342      1.41188  1_565   S
    C212   N343      1.41278  1_565   S
    C188   H35       1.08998      .   S
    C187   H34       1.08945      .   S
    C157   H13       1.08881      .   S
    C158   H14       1.08877      .   S
    C145   O366      1.27699      .   S
    C146   O367      1.27702      .   S
    C175   C173      1.38904      .   S
    C175   H25       1.08972      .   S
    C176   C174      1.38903      .   S
    C176   H26       1.08960      .   S
    C174   H24       1.08923      .   S
    C173   H23       1.08924      .   S
    N342   N358      1.28182  1_545   S
    N343   N359      1.28054  1_545   S
    O382   C237      1.27712      .   S
    O383   C238      1.27707      .   S
    O367   Zn4       2.05067      .   S
    O366   Zn3       2.05005      .   S
    H79    C250      1.08876      .   S
    H78    C249      1.08722      .   S
    H91    C263      1.08971      .   S
    H90    C262      1.08965      .   S
    H89    C261      1.07840      .   S
    H88    C136      1.08928      .   S
    N358   C302      1.41274  1_565   S
    N359   C303      1.41277  1_565   S
    H118   C300      1.08620      .   S
    H119   C301      1.08615      .   S
    C261   C263      1.38922      .   S
    C261   N345      1.35773      .   S
    C136   C262      1.38907      .   S
    C136   N344      1.34699      .   S
    C262   C264      1.40405      .   S
    C263   C265      1.40404      .   S
    H98    C274      1.08945      .   S
    H99    C275      1.08940      .   S
    C238   O377      1.27010      .   S
    C238   C240      1.50270      .   S
    C237   O376      1.27007      .   S
    C237   C239      1.50254      .   S
    C249   C239      1.40343      .   S
    C249   C247      1.39189      .   S
    C250   C240      1.40301      .   S
    C250   C248      1.39070      .   S
    H96    C272      1.08829      .   S
    H97    C273      1.08890      .   S
    H77    C248      1.08953  1_565   S
    H76    C247      1.08961  1_565   S
    C275   C273      1.38712      .   S
    C275   N347      1.34829      .   S
    C274   C272      1.38709      .   S
    C274   N346      1.34836      .   S
    C303   C301      1.40858      .   S
    C303   C305      1.40633      .   S
    C302   C300      1.40859      .   S
    C302   C304      1.40644      .   S
    C300   C298      1.38592      .   S
    C301   C299      1.38678      .   S
    C272   C270      1.40499      .   S
    C273   C271      1.40430      .   S
    O377   Zn3       2.05200  1_655   S
    O376   Zn4       2.05195      .   S
    Zn3    N346      2.20334      .   S
    Zn3    N345      2.16262  1_455   S
    Zn3    O380      2.05530      .   S
    Zn4    N347      2.20319      .   S
    Zn4    N344      2.16209      .   S
    Zn4    O381      2.05497      .   S
    N347   C277      1.34807      .   S
    N346   C276      1.34797      .   S
    C239   C241      1.40824      .   S
    C240   C242      1.40810      .   S
    N345   C269      1.34884      .   S
    N344   C268      1.34771      .   S
    C248   C246      1.40462      .   S
    C247   C245      1.40446      .   S
    C264   C270      1.47935      .   S
    C264   C266      1.40511      .   S
    C265   C271      1.47934      .   S
    C265   C267      1.40500      .   S
    C271   C279      1.40569      .   S
    C270   C278      1.40490      .   S
    C277   C279      1.39241      .   S
    C277   H105      1.08998      .   S
    C276   C278      1.39232      .   S
    C276   H104      1.08984      .   S
    C278   H106      1.09308      .   S
    C279   H107      1.09226      .   S
    H121   C305      1.09024  1_565   S
    H120   C304      1.09037  1_565   S
    C304   C306      1.39134      .   S
    C305   C307      1.39136      .   S
    C298   H116      1.08870      .   S
    C298   C296      1.40776      .   S
    C299   H117      1.08896      .   S
    C299   C297      1.40639      .   S
    C268   C266      1.39029      .   S
    C268   H94       1.09117      .   S
    C269   C267      1.39017      .   S
    C269   H95       1.09004      .   S
    C267   H93       1.09118      .   S
    C266   H92       1.09113      .   S
    C242   H73       1.08924      .   S
    C242   C244      1.38658      .   S
    C241   H72       1.08907      .   S
    C241   C243      1.38586      .   S
    C245   N348      1.41448  1_545   S
    C245   C243      1.40804      .   S
    C246   N349      1.41450  1_545   S
    C246   C244      1.40832      .   S
    O380   C251      1.28952      .   S
    O381   C252      1.28994      .   S
    C307   C297      1.40131      .   S
    C307   H123      1.08731      .   S
    C306   C296      1.40127      .   S
    C306   H122      1.08663      .   S
    C296   C294      1.50487      .   S
    C297   C295      1.50505      .   S
    N349   N357      1.27935  1_565   S
    N348   N356      1.27935  1_565   S
    C243   H74       1.08865      .   S
    C244   H75       1.08761      .   S
    H111   C287      1.08819      .   S
    H110   C286      1.08775      .   S
    C251   O378      1.26097      .   S
    C251   C253      1.50493      .   S
    C252   O379      1.26085      .   S
    C252   C254      1.50469      .   S
    O386   C294      1.26087      .   S
    O387   C295      1.26083      .   S
    C295   O389      1.28996      .   S
    C294   O388      1.28852      .   S
    H86    C134      1.08727      .   S
    H87    C135      1.08731      .   S
    C287   C289      1.40834      .   S
    C287   C285      1.38652      .   S
    C286   C288      1.40828      .   S
    C286   C284      1.38651      .   S
    N356   C288      1.41441  1_545   S
    N357   C289      1.41447  1_545   S
    H108   C284      1.08926      .   S
    H109   C285      1.08925      .   S
    H129   C315      1.09113      .   S
    H128   C314      1.09113      .   S
    C253   C134      1.40128      .   S
    C253   C255      1.40654      .   S
    C254   C135      1.40128      .   S
    C254   C256      1.40653      .   S
    H131   C317      1.09028      .   S
    H130   C316      1.09005      .   S
    C135   C133      1.39136      .   S
    C134   C132      1.39132      .   S
    O388   Zn5       2.05688      .   S
    O389   Zn6       2.05589      .   S
    C288   C290      1.40312      .   S
    C289   C291      1.40450      .   S
    C285   C283      1.40821      .   S
    C284   C282      1.40812      .   S
    C315   C317      1.39018      .   S
    C315   C312      1.40506      .   S
    C314   C316      1.39020      .   S
    C314   C313      1.40515  1_455   S
    H143   C326      1.09232      .   S
    H144   C327      1.09223      .   S
    C317   N353      1.34802      .   S
    C316   N352      1.34764      .   S
    H141   C324      1.09006      .   S
    H142   C325      1.09002      .   S
    H81    C256      1.08900      .   S
    H80    C255      1.08901      .   S
    C255   C257      1.38676      .   S
    C256   C258      1.38680      .   S
    C132   H84       1.09037  1_565   S
    C132   C259      1.40644      .   S
    C133   H85       1.09041  1_565   S
    C133   C260      1.40581      .   S
    C327   C325      1.39244      .   S
    C327   C319      1.40568      .   S
    C326   C324      1.39241      .   S
    C326   C318      1.40565      .   S
    C324   N354      1.34805      .   S
    C325   N355      1.34808      .   S
    C318   C312      1.47934      .   S
    C318   C320      1.40391      .   S
    C319   C313      1.47937      .   S
    C319   C321      1.40431      .   S
    C313   C310      1.40416  1_655   S
    C312   C311      1.40403      .   S
    C290   H112      1.08994  1_565   S
    C290   C292      1.39170      .   S
    C291   H113      1.08960  1_565   S
    C291   C293      1.39064      .   S
    N353   Zn6       2.16022      .   S
    N353   C309      1.34813      .   S
    N352   Zn5       2.16029      .   S
    N352   C308      1.34815      .   S
    C283   C293      1.40297      .   S
    C283   C281      1.50244      .   S
    C282   C292      1.40298      .   S
    C282   C280      1.50269      .   S
    N354   Zn5       2.20478      .   S
    N354   C322      1.34824      .   S
    N355   Zn6       2.20479      .   S
    N355   C323      1.34829      .   S
    Zn5    O384      2.05177      .   S
    Zn5    O374      2.04993      .   S
    Zn6    O385      2.05175      .   S
    Zn6    O375      2.05002      .   S
    O385   C281      1.26971      .   S
    O384   C280      1.26986      .   S
    C320   C322      1.38721      .   S
    C320   H137      1.08917      .   S
    C321   C323      1.38721      .   S
    C321   H138      1.08890      .   S
    C257   C259      1.40856      .   S
    C257   H82       1.08617      .   S
    C258   C260      1.40870      .   S
    C258   H83       1.08608      .   S
    C260   N351      1.41308  1_565   S
    C259   N350      1.41268  1_565   S
    C322   H139      1.08944      .   S
    C323   H140      1.08872      .   S
    C293   H115      1.08893      .   S
    C292   H114      1.08887      .   S
    C310   C308      1.38902      .   S
    C310   H127      1.08975  1_455   S
    C311   C309      1.38898      .   S
    C311   H126      1.08977      .   S
    C309   H125      1.08868      .   S
    C308   H124      1.08925      .   S
