# CIF file generated by openbabel 2.4.90, see http://openbabel.sf.net
data_I
_chemical_name_common ''
_cell_length_a 22.915
_cell_length_b 13.727
_cell_length_c 18.178
_cell_angle_alpha 100.366
_cell_angle_beta 89.956
_cell_angle_gamma 114.764
_space_group_name_H-M_alt 'P 1'
_space_group_name_Hall 'P 1'
loop_
    _symmetry_equiv_pos_as_xyz
    x,y,z
loop_
    _atom_site_label
    _atom_site_type_symbol
    _atom_site_fract_x
    _atom_site_fract_y
    _atom_site_fract_z
    _atom_site_occupancy
    Zr0     Zr   0.49100   0.39815   0.40315   1.000
    Zr1     Zr   0.99100   0.39815   0.40315   1.000
    Zr2     Zr   0.29219   0.60228   0.09688   1.000
    Zr3     Zr   0.79218   0.60228   0.09688   1.000
    Zr4     Zr   0.00899   0.60192   0.59680   1.000
    Zr5     Zr   0.50899   0.60192   0.59683   1.000
    Zr6     Zr   0.20781   0.39779   0.90310   1.000
    Zr7     Zr   0.70780   0.39778   0.90310   1.000
    N8      N    0.25001   0.00004   0.99997   1.000
    O9      O    0.14074   0.83473   0.81946   1.000
    O10     O    0.35927   0.16534   0.18050   1.000
    N11     N    0.45841   0.39628   0.89527   1.000
    O12     O    0.55908   0.39507   0.89781   1.000
    O13     O    0.35777   0.39966   0.89876   1.000
    N14     N    0.54158   0.60379   0.10469   1.000
    O15     O    0.64222   0.60041   0.10121   1.000
    O16     O    0.44091   0.60500   0.10214   1.000
    N17     N    0.04159   0.60379   0.10469   1.000
    O18     O    0.14223   0.60041   0.10121   1.000
    O19     O    0.94091   0.60500   0.10214   1.000
    N20     N    0.73971   0.39655   0.39531   1.000
    O21     O    0.63839   0.39531   0.39786   1.000
    O22     O    0.84203   0.40000   0.39881   1.000
    N23     N    0.63614   0.00007   0.24998   1.000
    O24     O    0.66731   0.18079   0.09950   1.000
    O25     O    0.70617   0.76005   0.17267   1.000
    O26     O    0.57702   0.81918   0.40045   1.000
    O27     O    0.57633   0.24023   0.32733   1.000
    N28     N    0.13616   0.00007   0.24998   1.000
    O29     O    0.07634   0.24023   0.32733   1.000
    O30     O    0.20619   0.76004   0.17267   1.000
    O31     O    0.07703   0.81918   0.40045   1.000
    O32     O    0.16733   0.18079   0.09950   1.000
    N33     N    0.23972   0.39655   0.39531   1.000
    O34     O    0.13840   0.39531   0.39786   1.000
    O35     O    0.34204   0.40000   0.39882   1.000
    N36     N    0.74999   0.00004   0.49998   1.000
    O37     O    0.77678   0.83495   0.31948   1.000
    O38     O    0.72321   0.16512   0.68049   1.000
    N39     N    0.36385   0.99999   0.74998   1.000
    O40     O    0.42366   0.75984   0.67264   1.000
    O41     O    0.33268   0.81927   0.90047   1.000
    O42     O    0.29382   0.24002   0.82730   1.000
    O43     O    0.42297   0.18089   0.59951   1.000
    N44     N    0.95841   0.39628   0.89528   1.000
    O45     O    0.05909   0.39507   0.89781   1.000
    O46     O    0.85777   0.39966   0.89876   1.000
    N47     N    0.25000   0.00004   0.49998   1.000
    O48     O    0.22321   0.16512   0.68046   1.000
    O49     O    0.27679   0.83495   0.31948   1.000
    N50     N    0.86384   0.99999   0.74999   1.000
    O51     O    0.83267   0.81927   0.90046   1.000
    O52     O    0.79381   0.24002   0.82730   1.000
    O53     O    0.92296   0.18089   0.59952   1.000
    O54     O    0.92366   0.75984   0.67263   1.000
    N55     N    0.76027   0.60352   0.60462   1.000
    O56     O    0.65795   0.60007   0.60114   1.000
    O57     O    0.86159   0.60476   0.60209   1.000
    N58     N    0.74999   0.00004   0.99999   1.000
    O59     O    0.85926   0.16534   0.18051   1.000
    O60     O    0.64072   0.83473   0.81947   1.000
    N61     N    0.26028   0.60352   0.60465   1.000
    O62     O    0.15796   0.60007   0.60115   1.000
    O63     O    0.36160   0.60477   0.60211   1.000
loop_
    _geom_bond_atom_site_label_1
    _geom_bond_atom_site_label_2
    _geom_bond_distance
    _geom_bond_site_symmetry_2
    _ccdc_geom_bond_type
    N8     O9        3.84181  1_545   S
    Zr4    O9        4.79479      .   S
    N8     O10       3.84187  1_556   S
    Zr0    O10       4.79463      .   S
    N11    O12       2.31457      .   S
    Zr7    O12       3.39363      .   S
    N11    O13       2.32643      .   S
    Zr6    O13       3.42666      .   S
    N14    O15       2.32644      .   S
    Zr3    O15       3.42668      .   S
    N14    O16       2.31456      .   S
    Zr2    O16       3.39357      .   S
    N17    O18       2.32653      .   S
    Zr2    O18       3.42679      .   S
    N17    O19       2.31469  1_455   S
    Zr3    O19       3.39376      .   S
    N20    O21       2.31505      .   S
    Zr0    O21       3.39502      .   S
    N20    O22       2.32596      .   S
    Zr1    O22       3.42537      .   S
    N23    O24       3.88602      .   S
    Zr7    O24       4.89754  1_556   S
    N23    O25       4.26216  1_545   S
    Zr3    O25       3.60146      .   S
    N23    O26       3.88634  1_545   S
    Zr5    O26       4.89847      .   S
    N23    O27       4.10333      .   S
    Zr0    O27       3.59075      .   S
    N28    O29       4.10340      .   S
    Zr1    O29       3.59107  1_655   S
    N28    O30       4.26223  1_545   S
    Zr2    O30       3.60133      .   S
    N28    O31       3.88626  1_545   S
    Zr4    O31       4.89811      .   S
    N28    O32       3.88604      .   S
    Zr6    O32       4.89755  1_556   S
    N33    O34       2.31517      .   S
    Zr1    O34       3.39536  1_655   S
    N33    O35       2.32591      .   S
    Zr0    O35       3.42528      .   S
    N36    O37       3.84243  1_545   S
    Zr3    O37       4.79490      .   S
    N36    O38       3.84244      .   S
    Zr7    O38       4.79494      .   S
    N39    O40       4.10326      .   S
    Zr5    O40       3.59064      .   S
    N39    O41       3.88613      .   S
    Zr2    O41       4.89770  1_554   S
    N39    O42       4.26223  1_565   S
    Zr6    O42       3.60144      .   S
    N39    O43       3.88626  1_565   S
    Zr0    O43       4.89834      .   S
    N44    O45       2.31470  1_655   S
    Zr6    O45       3.39379      .   S
    N44    O46       2.32652      .   S
    Zr7    O46       3.42675      .   S
    N47    O48       3.84221      .   S
    Zr6    O48       4.79528      .   S
    N47    O49       3.84237  1_545   S
    Zr2    O49       4.79489      .   S
    N50    O51       3.88599      .   S
    Zr3    O51       4.89773  1_554   S
    N50    O52       4.26213  1_565   S
    Zr7    O52       3.60149      .   S
    N50    O53       3.88633  1_565   S
    Zr1    O53       4.89838      .   S
    N50    O54       4.10338      .   S
    Zr4    O54       3.59102  1_455   S
    N55    O56       2.32592      .   S
    Zr5    O56       3.42530      .   S
    N55    O57       2.31516      .   S
    Zr4    O57       3.39536  1_455   S
    N58    O59       3.84181  1_556   S
    Zr1    O59       4.79459      .   S
    N58    O60       3.84178  1_545   S
    Zr5    O60       4.79454      .   S
    N61    O62       2.32596      .   S
    Zr4    O62       3.42540      .   S
    N61    O63       2.31503      .   S
    Zr5    O63       3.39496      .   S
