# CIF file generated by openbabel 2.4.90, see http://openbabel.sf.net
data_I
_chemical_name_common 'Cd3H24C36(NO7)2'
_cell_length_a 13.563
_cell_length_b 13.894
_cell_length_c 16.09
_cell_angle_alpha 92.116
_cell_angle_beta 97.132
_cell_angle_gamma 91.853
_space_group_name_H-M_alt 'P 1'
_space_group_name_Hall 'P 1'
loop_
    _symmetry_equiv_pos_as_xyz
    x,y,z
loop_
    _atom_site_label
    _atom_site_type_symbol
    _atom_site_fract_x
    _atom_site_fract_y
    _atom_site_fract_z
    _atom_site_occupancy
    Cd0     Cd   0.56388   0.44526   0.73950   1.000
    Cd1     Cd   0.24885   0.75871   0.23945   1.000
    Cd2     Cd   0.34516   0.66913   0.74563   1.000
    Cd3     Cd   0.43620   0.55471   0.25701   1.000
    Cd4     Cd   0.75116   0.24124   0.75704   1.000
    Cd5     Cd   0.65466   0.33047   0.25081   1.000
    H6      H    0.27038   0.30306   0.69722   1.000
    H7      H    0.09195   0.23923   0.67848   1.000
    H8      H    0.02291   0.45373   0.85757   1.000
    H9      H    0.27494   0.47296   0.98752   1.000
    H10     H    0.26264   0.77817   0.03381   1.000
    H11     H    0.17022   0.79377   0.89091   1.000
    H12     H    0.46826   0.28026   0.47794   1.000
    H13     H    0.79741   0.15954   0.42767   1.000
    H14     H    0.77973   0.25511   0.55904   1.000
    H15     H    0.64757   0.99721   0.41622   1.000
    H16     H    0.58927   0.90655   0.34260   1.000
    H17     H    0.72152   0.91333   0.36723   1.000
    H18     H    0.73497   0.92776   0.21311   1.000
    H19     H    0.60288   0.92656   0.18887   1.000
    H20     H    0.67641   0.02726   0.16132   1.000
    H21     H    0.28272   0.27205   0.19256   1.000
    H22     H    0.23082   0.09626   0.16605   1.000
    H23     H    0.46311   0.02174   0.35454   1.000
    H24     H    0.03232   0.66053   0.62496   1.000
    H25     H    0.92748   0.59047   0.65052   1.000
    H26     H    0.92870   0.71868   0.66194   1.000
    H27     H    0.90704   0.70231   0.81543   1.000
    H28     H    0.90731   0.57428   0.80211   1.000
    H29     H    0.99635   0.63610   0.87898   1.000
    H30     H    0.72973   0.69659   0.29956   1.000
    H31     H    0.90813   0.76046   0.31828   1.000
    H32     H    0.97716   0.54614   0.13904   1.000
    H33     H    0.72522   0.52701   0.00908   1.000
    H34     H    0.73731   0.22179   0.96265   1.000
    H35     H    0.82962   0.20605   0.10557   1.000
    H36     H    0.53183   0.71987   0.51847   1.000
    H37     H    0.20253   0.84004   0.56900   1.000
    H38     H    0.22027   0.74464   0.43754   1.000
    H39     H    0.35240   0.00259   0.58054   1.000
    H40     H    0.41080   0.09313   0.65423   1.000
    H41     H    0.27854   0.08642   0.62968   1.000
    H42     H    0.26520   0.07178   0.78380   1.000
    H43     H    0.39731   0.07293   0.80794   1.000
    H44     H    0.32378   0.00000   0.83545   1.000
    H45     H    0.71719   0.72790   0.80405   1.000
    H46     H    0.76911   0.90369   0.83055   1.000
    H47     H    0.53695   0.97822   0.64196   1.000
    H48     H    0.00000   0.33877   0.37163   1.000
    H49     H    0.07234   0.40880   0.34625   1.000
    H50     H    0.07097   0.28060   0.33462   1.000
    H51     H    0.09276   0.29712   0.18121   1.000
    H52     H    0.09273   0.42515   0.19468   1.000
    H53     H    0.00363   0.36358   0.11770   1.000
    C54     C    0.35142   0.45197   0.78966   1.000
    C55     C    0.24474   0.41690   0.78425   1.000
    C56     C    0.21451   0.33602   0.73105   1.000
    C57     C    0.11667   0.30051   0.72103   1.000
    C58     C    0.04745   0.34343   0.76702   1.000
    C59     C    0.07743   0.42307   0.82097   1.000
    C60     C    0.17467   0.46216   0.82910   1.000
    C61     C    0.94201   0.30473   0.75924   1.000
    C62     C    0.19936   0.54955   0.88544   1.000
    C63     C    0.25048   0.54259   0.96571   1.000
    C64     C    0.27330   0.62411   0.01906   1.000
    C65     C    0.24438   0.71488   0.99207   1.000
    C66     C    0.19268   0.72327   0.91237   1.000
    C67     C    0.16945   0.64110   0.85919   1.000
    C68     C    0.32961   0.61293   0.10440   1.000
    C69     C    0.12247   0.65133   0.77086   1.000
    C70     C    0.60913   0.33316   0.60274   1.000
    C71     C    0.62234   0.27314   0.52578   1.000
    C72     C    0.53961   0.25236   0.46621   1.000
    C73     C    0.54746   0.19790   0.39282   1.000
    C74     C    0.64161   0.16420   0.37943   1.000
    C75     C    0.72489   0.18497   0.43919   1.000
    C76     C    0.71541   0.23897   0.51232   1.000
    C77     C    0.65295   0.11657   0.29634   1.000
    C78     C    0.65448   0.95602   0.35816   1.000
    C79     C    0.66967   0.97295   0.20788   1.000
    C80     C    0.43281   0.34980   0.29425   1.000
    C81     C    0.40491   0.24441   0.28525   1.000
    C82     C    0.32232   0.21596   0.22694   1.000
    C83     C    0.29349   0.11930   0.21233   1.000
    C84     C    0.34506   0.04917   0.25862   1.000
    C85     C    0.42638   0.07730   0.31750   1.000
    C86     C    0.45879   0.17391   0.33055   1.000
    C87     C    0.31259   0.94476   0.24725   1.000
    C88     C    0.97532   0.65539   0.66713   1.000
    C89     C    0.95483   0.63985   0.81654   1.000
    C90     C    0.64864   0.54784   0.20690   1.000
    C91     C    0.75535   0.58284   0.21243   1.000
    C92     C    0.78558   0.66368   0.26568   1.000
    C93     C    0.88342   0.69921   0.27571   1.000
    C94     C    0.95262   0.65639   0.22962   1.000
    C95     C    0.92266   0.57675   0.17567   1.000
    C96     C    0.82541   0.53765   0.16752   1.000
    C97     C    0.05802   0.69520   0.23733   1.000
    C98     C    0.80070   0.45030   0.11115   1.000
    C99     C    0.74962   0.45734   0.03087   1.000
    C100    C    0.72675   0.37586   0.97747   1.000
    C101    C    0.75559   0.28506   0.00000   1.000
    C102    C    0.80724   0.27658   0.08414   1.000
    C103    C    0.83050   0.35871   0.13737   1.000
    C104    C    0.67046   0.38709   0.89213   1.000
    C105    C    0.87738   0.34834   0.22571   1.000
    C106    C    0.39090   0.66684   0.39374   1.000
    C107    C    0.37770   0.72683   0.47071   1.000
    C108    C    0.46045   0.74766   0.53026   1.000
    C109    C    0.45257   0.80204   0.60368   1.000
    C110    C    0.35838   0.83556   0.61715   1.000
    C111    C    0.27508   0.81474   0.55742   1.000
    C112    C    0.28459   0.76083   0.48424   1.000
    C113    C    0.34703   0.88304   0.70029   1.000
    C114    C    0.34556   0.04369   0.63866   1.000
    C115    C    0.33049   0.02656   0.78894   1.000
    C116    C    0.56717   0.65017   0.70226   1.000
    C117    C    0.59507   0.75556   0.71130   1.000
    C118    C    0.67763   0.78399   0.76964   1.000
    C119    C    0.70647   0.88064   0.78424   1.000
    C120    C    0.65494   0.95077   0.73792   1.000
    C121    C    0.57364   0.92266   0.67901   1.000
    C122    C    0.54123   0.82605   0.66596   1.000
    C123    C    0.68744   0.05516   0.74931   1.000
    C124    C    0.02444   0.34394   0.32951   1.000
    C125    C    0.04509   0.35967   0.18015   1.000
    N126    N    0.02306   0.65005   0.75346   1.000
    N127    N    0.66189   0.02077   0.28931   1.000
    N128    N    0.00000   0.34949   0.24317   1.000
    N129    N    0.33818   0.00000   0.70744   1.000
    O130    O    0.17763   0.66118   0.71277   1.000
    O131    O    0.37614   0.53892   0.81615   1.000
    O132    O    0.41225   0.39182   0.76772   1.000
    O133    O    0.35401   0.88610   0.29913   1.000
    O134    O    0.24494   0.91906   0.18796   1.000
    O135    O    0.52447   0.36699   0.60836   1.000
    O136    O    0.68353   0.34996   0.65966   1.000
    O137    O    0.35374   0.52856   0.12465   1.000
    O138    O    0.35268   0.68780   0.15257   1.000
    O139    O    0.91186   0.24180   0.70169   1.000
    O140    O    0.88692   0.33754   0.81225   1.000
    O141    O    0.52491   0.37893   0.30913   1.000
    O142    O    0.36336   0.40822   0.28503   1.000
    O143    O    0.65408   0.16833   0.23256   1.000
    O144    O    0.82215   0.33845   0.28374   1.000
    O145    O    0.62388   0.46089   0.18043   1.000
    O146    O    0.58783   0.60807   0.22875   1.000
    O147    O    0.64600   0.11385   0.69745   1.000
    O148    O    0.75514   0.08082   0.80857   1.000
    O149    O    0.47557   0.63303   0.38809   1.000
    O150    O    0.31649   0.65004   0.33683   1.000
    O151    O    0.64632   0.47146   0.87189   1.000
    O152    O    0.64740   0.31223   0.84394   1.000
    O153    O    0.08815   0.75817   0.29486   1.000
    O154    O    0.11308   0.66246   0.18428   1.000
    O155    O    0.47507   0.62104   0.68735   1.000
    O156    O    0.63663   0.59176   0.71150   1.000
    O157    O    0.34586   0.83114   0.76397   1.000
loop_
    _geom_bond_atom_site_label_1
    _geom_bond_atom_site_label_2
    _geom_bond_distance
    _geom_bond_site_symmetry_2
    _ccdc_geom_bond_type
    C101   C102      1.45564      .   S
    C101   H34       1.05123  1_554   S
    C101   C100      1.38076  1_554   S
    H33    C99       1.08911      .   S
    C64    C68       1.50191      .   S
    C64    C63       1.39833  1_554   S
    C64    C65       1.40104  1_554   S
    C99    C98       1.39624      .   S
    C99    C100      1.39835  1_554   S
    H10    C65       1.08941  1_554   S
    C102   H35       1.09076      .   S
    C102   C103      1.40447      .   S
    C68    O137      1.27050      .   S
    C68    O138      1.28064      .   S
    C98    C103      1.41114      .   S
    C98    C96       1.49170      .   S
    H53    C125      1.09286      .   S
    O137   Cd3       2.28980      .   S
    C103   C105      1.49737      .   S
    H32    C95       1.08855      .   S
    O138   Cd1       2.32062      .   S
    H20    C79       1.09233  1_545   S
    H22    C83       1.08953      .   S
    C96    C95       1.39911      .   S
    C96    C91       1.41239      .   S
    C95    C94       1.39829      .   S
    C125   H51       1.09925      .   S
    C125   H52       1.09937      .   S
    C125   N128      1.25745      .   S
    O145   C90       1.28602      .   S
    O145   Cd5       2.19614      .   S
    O154   C97       1.28256      .   S
    O154   Cd1       2.30538      .   S
    O134   Cd1       2.40534      .   S
    O134   C87       1.27108      .   S
    H19    C79       1.09940      .   S
    H21    C82       1.08941      .   S
    C90    C91       1.50281      .   S
    C90    O146      1.26453      .   S
    C79    H18       1.09865      .   S
    C79    N127      1.46430  1_565   S
    C83    C82       1.38990      .   S
    C83    C84       1.40057      .   S
    C91    C92       1.40556      .   S
    C105   N128      1.65140  1_655   S
    C105   O144      1.27604      .   S
    C82    C81       1.40502      .   S
    O146   Cd3       2.26816      .   S
    C94    C97       1.50029  1_655   S
    C94    C93       1.40037      .   S
    O143   Cd5       2.26061      .   S
    O143   C77       1.27601      .   S
    C97    O153      1.26983      .   S
    Cd1    O153      2.45509      .   S
    Cd1    O133      2.33671      .   S
    Cd1    O150      2.34179      .   S
    N128   C124      1.39310      .   S
    C87    C84       1.50023  1_565   S
    C87    O133      1.28078      .   S
    Cd5    O144      2.26581      .   S
    Cd5    O141      2.20704      .   S
    Cd3    O142      2.31730      .   S
    Cd3    O149      2.33039      .   S
    C84    C85       1.39719      .   S
    C92    C93       1.38891      .   S
    C92    H30       1.08933      .   S
    C93    H31       1.08970      .   S
    O142   C80       1.26173      .   S
    C81    C80       1.49774      .   S
    C81    C86       1.41122      .   S
    N127   C77       1.34228      .   S
    N127   C78       1.46351  1_545   S
    C80    O141      1.29132      .   S
    C77    C74       1.49711      .   S
    C85    C86       1.39897      .   S
    C85    H23       1.08831      .   S
    C124   H50       1.09910      .   S
    C124   H49       1.09891      .   S
    C124   H48       0.79506      .   S
    C86    C73       1.48714      .   S
    O150   C106      1.28488      .   S
    H16    C78       1.10020      .   S
    C78    H17       1.09918      .   S
    C78    H15       1.09308      .   S
    C74    C73       1.41273      .   S
    C74    C75       1.40451      .   S
    O149   C106      1.26697      .   S
    C73    C72       1.39590      .   S
    C106   C107      1.49968      .   S
    H13    C75       1.09065      .   S
    H38    C112      1.09008      .   S
    C75    C76       1.39385      .   S
    C72    H12       1.08933      .   S
    C72    C71       1.39747      .   S
    C107   C112      1.40164      .   S
    C107   C108      1.39748      .   S
    C112   C111      1.39383      .   S
    C76    C71       1.40166      .   S
    C76    H14       1.09007      .   S
    H36    C108      1.08932      .   S
    C71    C70       1.49974      .   S
    C108   C109      1.39586      .   S
    C111   H37       1.09064      .   S
    C111   C110      1.40448      .   S
    H39    C114      1.09307      .   S
    C70    O135      1.26694      .   S
    C70    O136      1.28492      .   S
    C109   C110      1.41268      .   S
    C109   C122      1.48715      .   S
    O135   Cd0       2.33086      .   S
    C110   C113      1.49702      .   S
    H24    C88       1.09246  1_455   S
    H41    C114      1.09919      .   S
    C114   H40       1.10021      .   S
    C114   N129      1.29479      .   S
    H47    C121      1.08831      .   S
    H25    C88       1.09890      .   S
    O136   Cd4       2.34214      .   S
    H26    C88       1.09911      .   S
    C122   C121      1.39895      .   S
    C122   C117      1.41118      .   S
    C88    N126      1.46341  1_655   S
    H7     C57       1.08969      .   S
    C121   C120      1.39719      .   S
    O155   C116      1.29124      .   S
    O155   Cd2       2.20702      .   S
    H6     C56       1.08933      .   S
    O147   C123      1.28086      .   S
    O147   Cd4       2.33622      .   S
    C113   N129      1.63417  1_565   S
    C113   O157      1.27606      .   S
    O139   Cd4       2.45469      .   S
    O139   C61       1.26983      .   S
    C116   C117      1.49766      .   S
    C116   O156      1.26176      .   S
    N129   C115      1.36643      .   S
    C117   C118      1.40501      .   S
    O156   Cd0       2.31692      .   S
    O130   Cd2       2.26619      .   S
    O130   C69       1.27604      .   S
    C57    C56       1.38891      .   S
    C57    C58       1.40036      .   S
    C56    C55       1.40555      .   S
    C120   C123      1.50015  1_565   S
    C120   C119      1.40056      .   S
    Cd0    O132      2.26831      .   S
    Cd0    O151      2.29032      .   S
    Cd2    O157      2.25888      .   S
    Cd2    O131      2.19533      .   S
    C123   O148      1.27100      .   S
    N126   C69       1.34206      .   S
    N126   C89       1.46352  1_455   S
    Cd4    O148      2.40651      .   S
    Cd4    O140      2.30576      .   S
    Cd4    O152      2.32040      .   S
    C61    C58       1.50026  1_655   S
    C61    O140      1.28254      .   S
    C58    C59       1.39825      .   S
    O132   C54       1.26443      .   S
    C118   C119      1.38985      .   S
    C118   H45       1.08942      .   S
    C69    C67       1.49732      .   S
    H42    C115      1.09868      .   S
    C119   H46       1.08952      .   S
    C55    C54       1.50279      .   S
    C55    C60       1.41241      .   S
    C115   H43       1.09941      .   S
    C115   H44       0.86005      .   S
    C54    O131      1.28603      .   S
    H28    C89       1.09937      .   S
    H27    C89       1.09924      .   S
    C89    H29       1.09288      .   S
    C59    C60       1.39908      .   S
    C59    H8        1.08854      .   S
    C60    C62       1.49169      .   S
    O152   C104      1.28068      .   S
    C67    C62       1.41117      .   S
    C67    C66       1.40448      .   S
    O151   C104      1.27047      .   S
    C62    C63       1.39618      .   S
    H11    C66       1.09077      .   S
    C104   C100      1.50195      .   S
    C66    C65       1.39386      .   S
    C63    H9        1.08908      .   S
