# CIF file generated by openbabel 2.4.90, see http://openbabel.sf.net
data_I
_chemical_name_common ''
_cell_length_a 13
_cell_length_b 18.343
_cell_length_c 18.751
_cell_angle_alpha 90.178
_cell_angle_beta 96.467
_cell_angle_gamma 90.123
_space_group_name_H-M_alt 'P 1'
_space_group_name_Hall 'P 1'
loop_
    _symmetry_equiv_pos_as_xyz
    x,y,z
loop_
    _atom_site_label
    _atom_site_type_symbol
    _atom_site_fract_x
    _atom_site_fract_y
    _atom_site_fract_z
    _atom_site_occupancy
    Lv0     Lv   0.24982   0.50008   0.50067   1.000
    Lv1     Lv   0.74926   0.50033   0.99995   1.000
    Lv2     Lv   0.25023   0.49977   0.00137   1.000
    Lv3     Lv   0.15081   0.74653   0.15882   1.000
    Lv4     Lv   0.34820   0.25317   0.84015   1.000
    Lv5     Lv   0.99860   0.99989   0.49979   1.000
    Lv6     Lv   0.49956   0.00035   0.99963   1.000
    Lv7     Lv   0.89961   0.75242   0.65922   1.000
    Lv8     Lv   0.59968   0.24746   0.34118   1.000
    Lv9     Lv   0.50025   0.99963   0.49976   1.000
    Lv10    Lv   0.39942   0.75287   0.65861   1.000
    Lv11    Lv   0.09897   0.24711   0.34127   1.000
    Lv12    Lv   0.65108   0.74669   0.15991   1.000
    Lv13    Lv   0.74928   0.49994   0.50063   1.000
    Lv14    Lv   0.99802   0.99949   0.00036   1.000
    Lv15    Lv   0.84872   0.25321   0.84065   1.000
