# CIF file generated by openbabel 2.4.90, see http://openbabel.sf.net
data_I
_chemical_name_common ''
_cell_length_a 11.298
_cell_length_b 24.39
_cell_length_c 22.765
_cell_angle_alpha 99.196
_cell_angle_beta 89.99
_cell_angle_gamma 89.963
_space_group_name_H-M_alt 'P 1'
_space_group_name_Hall 'P 1'
loop_
    _symmetry_equiv_pos_as_xyz
    x,y,z
loop_
    _atom_site_label
    _atom_site_type_symbol
    _atom_site_fract_x
    _atom_site_fract_y
    _atom_site_fract_z
    _atom_site_occupancy
    N0      N    0.41863   0.12628   0.56913   1.000
    N1      N    0.91864   0.62632   0.56914   1.000
    N2      N    0.33129   0.37642   0.06928   1.000
    N3      N    0.33126   0.87643   0.06930   1.000
    N4      N    0.83128   0.37642   0.06928   1.000
    N5      N    0.83125   0.87643   0.06929   1.000
    N6      N    0.41864   0.62632   0.56913   1.000
    N7      N    0.58133   0.37371   0.43083   1.000
    N8      N    0.58134   0.87375   0.43084   1.000
    N9      N    0.66868   0.62360   0.93070   1.000
    N10     N    0.16871   0.12359   0.93067   1.000
    N11     N    0.16868   0.62360   0.93070   1.000
    N12     N    0.66870   0.12359   0.93068   1.000
    N13     N    0.91863   0.12628   0.56913   1.000
    N14     N    0.08134   0.87375   0.43082   1.000
    N15     N    0.08133   0.37371   0.43083   1.000
    Zr16    Zr   0.11714   0.18256   0.27669   1.000
    O17     O    0.02867   0.23829   0.22029   1.000
    O18     O    0.19154   0.23683   0.22174   1.000
    O19     O    0.04656   0.16213   0.35381   1.000
    O20     O    0.14030   0.15980   0.17948   1.000
    O21     O    0.10542   0.23935   0.32659   1.000
    O22     O    0.20986   0.16280   0.35662   1.000
    Zr23    Zr   0.88282   0.81746   0.72330   1.000
    O24     O    0.85966   0.84022   0.82050   1.000
    O25     O    0.79010   0.83722   0.64337   1.000
    O26     O    0.95341   0.83790   0.64618   1.000
    O27     O    0.80842   0.76319   0.77825   1.000
    O28     O    0.97129   0.76173   0.77970   1.000
    O29     O    0.89454   0.76067   0.67340   1.000
    Zr30    Zr   0.13288   0.93246   0.77679   1.000
    O31     O    0.10970   0.90977   0.67961   1.000
    O32     O    0.20345   0.91209   0.85393   1.000
    O33     O    0.04014   0.91278   0.85675   1.000
    O34     O    0.05844   0.98673   0.72176   1.000
    O35     O    0.14458   0.98925   0.82660   1.000
    O36     O    0.22131   0.98819   0.72028   1.000
    Zr37    Zr   0.61711   0.68257   0.27671   1.000
    O38     O    0.60540   0.73938   0.32660   1.000
    O39     O    0.52865   0.73830   0.22030   1.000
    O40     O    0.69151   0.73684   0.22176   1.000
    O41     O    0.64027   0.65981   0.17950   1.000
    O42     O    0.70983   0.66283   0.35664   1.000
    O43     O    0.54653   0.66215   0.35382   1.000
    Zr44    Zr   0.36710   0.06756   0.22319   1.000
    O45     O    0.27868   0.01184   0.27966   1.000
    O46     O    0.35541   0.01077   0.17338   1.000
    O47     O    0.45984   0.08724   0.14322   1.000
    O48     O    0.29653   0.08793   0.14604   1.000
    O49     O    0.44154   0.01329   0.27820   1.000
    O50     O    0.39029   0.09025   0.32037   1.000
    Zr51    Zr   0.86710   0.06756   0.22319   1.000
    O52     O    0.77867   0.01184   0.27966   1.000
    O53     O    0.89028   0.09025   0.32037   1.000
    O54     O    0.94154   0.01329   0.27820   1.000
    O55     O    0.85540   0.01077   0.17337   1.000
    O56     O    0.95983   0.08724   0.14322   1.000
    O57     O    0.79653   0.08793   0.14605   1.000
    Zr58    Zr   0.13291   0.43247   0.77676   1.000
    O59     O    0.14459   0.48926   0.82659   1.000
    O60     O    0.04016   0.41279   0.85673   1.000
    O61     O    0.20347   0.41210   0.85391   1.000
    O62     O    0.05847   0.48674   0.72175   1.000
    O63     O    0.22134   0.48820   0.72029   1.000
    O64     O    0.10972   0.40976   0.67959   1.000
    Zr65    Zr   0.63290   0.43247   0.77676   1.000
    O66     O    0.54016   0.41279   0.85672   1.000
    O67     O    0.70346   0.41210   0.85391   1.000
    O68     O    0.64458   0.48926   0.82659   1.000
    O69     O    0.72133   0.48820   0.72030   1.000
    O70     O    0.55847   0.48674   0.72175   1.000
    O71     O    0.60971   0.40976   0.67959   1.000
    Zr72    Zr   0.11711   0.68257   0.27671   1.000
    O73     O    0.19152   0.73684   0.22176   1.000
    O74     O    0.02865   0.73830   0.22030   1.000
    O75     O    0.10540   0.73938   0.32660   1.000
    O76     O    0.04654   0.66215   0.35382   1.000
    O77     O    0.14028   0.65981   0.17950   1.000
    O78     O    0.20984   0.66283   0.35663   1.000
    Zr79    Zr   0.61713   0.18256   0.27669   1.000
    O80     O    0.52867   0.23829   0.22028   1.000
    O81     O    0.70985   0.16280   0.35662   1.000
    O82     O    0.69154   0.23683   0.22174   1.000
    O83     O    0.64030   0.15980   0.17948   1.000
    O84     O    0.54655   0.16213   0.35381   1.000
    O85     O    0.60542   0.23935   0.32659   1.000
    Zr86    Zr   0.88285   0.31745   0.72328   1.000
    O87     O    0.80844   0.26318   0.77823   1.000
    O88     O    0.89456   0.26065   0.67338   1.000
    O89     O    0.85968   0.34021   0.82048   1.000
    O90     O    0.97131   0.26172   0.77968   1.000
    O91     O    0.95343   0.33788   0.64616   1.000
    O92     O    0.79012   0.33720   0.64335   1.000
    Zr93    Zr   0.38283   0.81746   0.72330   1.000
    O94     O    0.30842   0.76319   0.77825   1.000
    O95     O    0.47129   0.76173   0.77970   1.000
    O96     O    0.45341   0.83790   0.64618   1.000
    O97     O    0.29011   0.83722   0.64337   1.000
    O98     O    0.35966   0.84022   0.82050   1.000
    O99     O    0.39454   0.76067   0.67340   1.000
    Zr100   Zr   0.38286   0.31745   0.72328   1.000
    O101    O    0.35969   0.34021   0.82048   1.000
    O102    O    0.30845   0.26318   0.77823   1.000
    O103    O    0.47132   0.26172   0.77969   1.000
    O104    O    0.29013   0.33720   0.64335   1.000
    O105    O    0.45343   0.33788   0.64616   1.000
    O106    O    0.39456   0.26065   0.67338   1.000
    Zr107   Zr   0.86707   0.56755   0.22322   1.000
    O108    O    0.95981   0.58723   0.14325   1.000
    O109    O    0.85539   0.51076   0.17339   1.000
    O110    O    0.79650   0.58792   0.14607   1.000
    O111    O    0.89026   0.59026   0.32039   1.000
    O112    O    0.94151   0.51328   0.27823   1.000
    O113    O    0.77864   0.51182   0.27968   1.000
    Zr114   Zr   0.36707   0.56755   0.22322   1.000
    O115    O    0.35539   0.51076   0.17339   1.000
    O116    O    0.45981   0.58723   0.14325   1.000
    O117    O    0.39026   0.59026   0.32039   1.000
    O118    O    0.44151   0.51328   0.27823   1.000
    O119    O    0.27865   0.51182   0.27968   1.000
    O120    O    0.29650   0.58792   0.14607   1.000
    Zr121   Zr   0.63288   0.93247   0.77679   1.000
    O122    O    0.70344   0.91209   0.85393   1.000
    O123    O    0.60969   0.90977   0.67961   1.000
    O124    O    0.54014   0.91279   0.85676   1.000
    O125    O    0.72130   0.98819   0.72028   1.000
    O126    O    0.64457   0.98925   0.82661   1.000
    O127    O    0.55844   0.98673   0.72176   1.000
loop_
    _geom_bond_atom_site_label_1
    _geom_bond_atom_site_label_2
    _geom_bond_distance
    _geom_bond_site_symmetry_2
    _ccdc_geom_bond_type
    Zr16   O17       2.24761      .   S
    N4     O17       5.64233  1_655   S
    Zr16   O18       2.13402      .   S
    N2     O18       5.46924      .   S
    Zr16   O19       2.06052      .   S
    N13    O19       5.31511  1_655   S
    Zr16   O20       2.20924      .   S
    N10    O20       5.60053  1_556   S
    Zr16   O21       1.65030      .   S
    N15    O21       3.73590      .   S
    Zr16   O22       2.21822      .   S
    N0     O22       5.58038      .   S
    Zr23   O24       2.20911      .   S
    N5     O24       5.60012  1_554   S
    Zr23   O25       2.21832      .   S
    N8     O25       5.58077      .   S
    Zr23   O26       2.06076      .   S
    N14    O26       5.31586  1_455   S
    Zr23   O27       2.13395      .   S
    N9     O27       5.46905      .   S
    Zr23   O28       2.24758      .   S
    N11    O28       5.64221  1_455   S
    Zr23   O29       1.65028      .   S
    N1     O29       3.73587      .   S
    Zr30   O31       2.20876      .   S
    N14    O31       5.60015      .   S
    Zr30   O32       2.06045      .   S
    N3     O32       5.31436  1_554   S
    Zr30   O33       2.21843      .   S
    N5     O33       5.58000  1_654   S
    Zr30   O34       2.13472      .   S
    N13    O34       5.47077  1_645   S
    Zr30   O35       1.64925      .   S
    N10    O35       3.73403  1_545   S
    Zr30   O36       2.24955      .   S
    N0     O36       5.64493  1_545   S
    Zr37   O38       1.65039      .   S
    N8     O38       3.73605      .   S
    Zr37   O39       2.24763      .   S
    N3     O39       5.64227      .   S
    Zr37   O40       2.13403      .   S
    N5     O40       5.46918      .   S
    Zr37   O41       2.20921      .   S
    N9     O41       5.60040  1_556   S
    Zr37   O42       2.21820      .   S
    N1     O42       5.58025      .   S
    Zr37   O43       2.06030      .   S
    N6     O43       5.31459      .   S
    Zr44   O45       2.24886      .   S
    N14    O45       5.64507  1_565   S
    Zr44   O46       1.64928      .   S
    N3     O46       3.73415  1_565   S
    Zr44   O47       2.21848      .   S
    N12    O47       5.57985  1_556   S
    Zr44   O48       2.06052      .   S
    N10    O48       5.31463  1_556   S
    Zr44   O49       2.13448      .   S
    N8     O49       5.47056  1_565   S
    Zr44   O50       2.20863      .   S
    N0     O50       5.59963      .   S
    Zr51   O52       2.24891      .   S
    N8     O52       5.64524  1_565   S
    Zr51   O53       2.20863      .   S
    N13    O53       5.59962      .   S
    Zr51   O54       2.13444      .   S
    N14    O54       5.47038  1_465   S
    Zr51   O55       1.64928      .   S
    N5     O55       3.73416  1_565   S
    Zr51   O56       2.21857      .   S
    N10    O56       5.58008  1_456   S
    Zr51   O57       2.06045      .   S
    N12    O57       5.31442  1_556   S
    Zr58   O59       1.64947      .   S
    N11    O59       3.73445      .   S
    Zr58   O60       2.21862      .   S
    N4     O60       5.58028  1_654   S
    Zr58   O61       2.06052      .   S
    N2     O61       5.31463  1_554   S
    Zr58   O62       2.13461      .   S
    N1     O62       5.47082  1_655   S
    Zr58   O63       2.24898      .   S
    N6     O63       5.64554      .   S
    Zr58   O64       2.20853      .   S
    N15    O64       5.59944      .   S
    Zr65   O66       2.21835      .   S
    N2     O66       5.58039  1_554   S
    Zr65   O67       2.06056      .   S
    N4     O67       5.31472  1_554   S
    Zr65   O68       1.64948      .   S
    N9     O68       3.73446      .   S
    Zr65   O69       2.24894      .   S
    N1     O69       5.64540      .   S
    Zr65   O70       2.13464      .   S
    N6     O70       5.47096      .   S
    Zr65   O71       2.20853      .   S
    N7     O71       5.59944      .   S
    Zr72   O73       2.13403      .   S
    N3     O73       5.46916      .   S
    Zr72   O74       2.24766      .   S
    N5     O74       5.64232  1_655   S
    Zr72   O75       1.65034      .   S
    N14    O75       3.73592      .   S
    Zr72   O76       2.06038      .   S
    N1     O76       5.31480  1_655   S
    Zr72   O77       2.20922      .   S
    N11    O77       5.60042  1_556   S
    Zr72   O78       2.21814      .   S
    N6     O78       5.58006      .   S
    Zr79   O80       2.24761      .   S
    N2     O80       5.64237      .   S
    Zr79   O81       2.21822      .   S
    N13    O81       5.58038      .   S
    Zr79   O82       2.13400      .   S
    N4     O82       5.46919      .   S
    Zr79   O83       2.20917      .   S
    N12    O83       5.60032  1_556   S
    Zr79   O84       2.06051      .   S
    N0     O84       5.31511      .   S
    Zr79   O85       1.65031      .   S
    N7     O85       3.73591      .   S
    Zr86   O87       2.13397      .   S
    N12    O87       5.46901      .   S
    Zr86   O88       1.65041      .   S
    N13    O88       3.73613      .   S
    Zr86   O89       2.20913      .   S
    N4     O89       5.60028  1_554   S
    Zr86   O90       2.24756      .   S
    N10    O90       5.64203  1_455   S
    Zr86   O91       2.06048      .   S
    N15    O91       5.31504  1_455   S
    Zr86   O92       2.21829      .   S
    N7     O92       5.58041      .   S
    Zr93   O94       2.13394      .   S
    N11    O94       5.46903      .   S
    Zr93   O95       2.24756      .   S
    N9     O95       5.64220      .   S
    Zr93   O96       2.06067      .   S
    N8     O96       5.31560      .   S
    Zr93   O97       2.21840      .   S
    N14    O97       5.58102      .   S
    Zr93   O98       2.20911      .   S
    N3     O98       5.60014  1_554   S
    Zr93   O99       1.65032      .   S
    N6     O99       3.73597      .   S
    Zr100  O101      2.20910      .   S
    N2     O101      5.60018  1_554   S
    Zr100  O102      2.13392      .   S
    N10    O102      5.46886      .   S
    Zr100  O103      2.24758      .   S
    N12    O103      5.64215      .   S
    Zr100  O104      2.21830      .   S
    N15    O104      5.58043      .   S
    Zr100  O105      2.06047      .   S
    N7     O105      5.31502      .   S
    Zr100  O106      1.65040      .   S
    N0     O106      3.73612      .   S
    Zr107  O108      2.21862      .   S
    N11    O108      5.58023  1_456   S
    Zr107  O109      1.64947      .   S
    N4     O109      3.73446      .   S
    Zr107  O110      2.06057      .   S
    N9     O110      5.31472  1_556   S
    Zr107  O111      2.20852      .   S
    N1     O111      5.59941      .   S
    Zr107  O112      2.13455      .   S
    N15    O112      5.47066  1_455   S
    Zr107  O113      2.24889      .   S
    N7     O113      5.64526      .   S
    Zr114  O115      1.64949      .   S
    N2     O115      3.73451      .   S
    Zr114  O116      2.21858      .   S
    N9     O116      5.58018  1_556   S
    Zr114  O117      2.20846      .   S
    N6     O117      5.59921      .   S
    Zr114  O118      2.13454      .   S
    N7     O118      5.47065      .   S
    Zr114  O119      2.24891      .   S
    N15    O119      5.64526      .   S
    Zr114  O120      2.06058      .   S
    N11    O120      5.31474  1_556   S
    Zr121  O122      2.06044      .   S
    N5     O122      5.31434  1_554   S
    Zr121  O123      2.20868      .   S
    N8     O123      5.59988      .   S
    Zr121  O124      2.21851      .   S
    N3     O124      5.57989  1_554   S
    Zr121  O125      2.24956      .   S
    N13    O125      5.64494  1_545   S
    Zr121  O126      1.64928      .   S
    N12    O126      3.73414  1_545   S
    Zr121  O127      2.13470      .   S
    N0     O127      5.47073  1_545   S
