# CIF file generated by openbabel 2.4.90, see http://openbabel.sf.net
data_I
_chemical_name_common ''
_cell_length_a 13.217
_cell_length_b 14.829
_cell_length_c 21.942
_cell_angle_alpha 89.925
_cell_angle_beta 90.037
_cell_angle_gamma 90.032
_space_group_name_H-M_alt 'P 1'
_space_group_name_Hall 'P 1'
loop_
    _symmetry_equiv_pos_as_xyz
    x,y,z
loop_
    _atom_site_label
    _atom_site_type_symbol
    _atom_site_fract_x
    _atom_site_fract_y
    _atom_site_fract_z
    _atom_site_occupancy
    N0      N    0.00582   0.76591   0.24005   1.000
    N1      N    0.50559   0.76575   0.23990   1.000
    N2      N    0.17707   0.55434   0.52897   1.000
    N3      N    0.68048   0.55300   0.52979   1.000
    N4      N    0.24420   0.23351   0.74096   1.000
    N5      N    0.74435   0.23493   0.74007   1.000
    N6      N    0.57073   0.44598   0.02874   1.000
    N7      N    0.07022   0.44651   0.02891   1.000
    N8      N    0.25598   0.73484   0.75983   1.000
    N9      N    0.75545   0.73372   0.75959   1.000
    N10     N    0.42916   0.94613   0.47083   1.000
    N11     N    0.93081   0.94540   0.47063   1.000
    N12     N    0.49352   0.26602   0.25876   1.000
    N13     N    0.99419   0.26601   0.25930   1.000
    N14     N    0.31913   0.05395   0.97092   1.000
    N15     N    0.82009   0.05539   0.97112   1.000
    Zr16    Zr   0.58280   0.98453   0.69875   1.000
    O17     O    0.65374   0.00320   0.77582   1.000
    O18     O    0.48999   0.90826   0.71448   1.000
    O19     O    0.68022   0.97872   0.63271   1.000
    O20     O    0.48589   0.06027   0.70863   1.000
    Zr21    Zr   0.83114   0.51545   0.30104   1.000
    O22     O    0.90261   0.49727   0.22408   1.000
    O23     O    0.92775   0.52125   0.36716   1.000
    O24     O    0.73454   0.43952   0.29113   1.000
    O25     O    0.73870   0.59188   0.28529   1.000
    Zr26    Zr   0.33317   0.51550   0.30120   1.000
    O27     O    0.24017   0.59192   0.28540   1.000
    O28     O    0.40426   0.49717   0.22415   1.000
    O29     O    0.43008   0.52098   0.36752   1.000
    O30     O    0.23614   0.43959   0.29139   1.000
    Zr31    Zr   0.41713   0.48460   0.80045   1.000
    O32     O    0.32047   0.47895   0.86682   1.000
    O33     O    0.51391   0.56043   0.79093   1.000
    O34     O    0.51008   0.40838   0.78488   1.000
    O35     O    0.34499   0.50299   0.72384   1.000
    Zr36    Zr   0.08054   0.98458   0.69869   1.000
    O37     O    0.17813   0.97894   0.63271   1.000
    O38     O    0.98436   0.06074   0.70833   1.000
    O39     O    0.15181   0.00285   0.77572   1.000
    O40     O    0.98824   0.90799   0.71437   1.000
    Zr41    Zr   0.16854   0.01516   0.19747   1.000
    O42     O    0.09746   0.99583   0.27470   1.000
    O43     O    0.26078   0.09177   0.21329   1.000
    O44     O    0.26501   0.93926   0.20740   1.000
    O45     O    0.07141   0.02146   0.13165   1.000
    Zr46    Zr   0.66712   0.01558   0.19784   1.000
    O47     O    0.59590   0.99627   0.27499   1.000
    O48     O    0.76407   0.93963   0.20776   1.000
    O49     O    0.76005   0.09202   0.21371   1.000
    O50     O    0.57000   0.02125   0.13198   1.000
    Zr51    Zr   0.91974   0.48460   0.80251   1.000
    O52     O    0.84827   0.50264   0.72536   1.000
    O53     O    0.01195   0.40799   0.78666   1.000
    O54     O    0.82206   0.47890   0.86808   1.000
    O55     O    0.01592   0.56077   0.79249   1.000
loop_
    _geom_bond_atom_site_label_1
    _geom_bond_atom_site_label_2
    _geom_bond_distance
    _geom_bond_site_symmetry_2
    _ccdc_geom_bond_type
    Zr16   O17       1.95314  1_565   S
    N15    O17       4.87757      .   S
    Zr16   O18       1.70318      .   S
    N8     O18       4.14233      .   S
    Zr16   O19       1.94113      .   S
    N11    O19       4.88705      .   S
    Zr16   O20       1.71807  1_565   S
    N4     O20       4.16218      .   S
    Zr21   O22       1.95451      .   S
    N7     O22       4.88219  1_455   S
    Zr21   O23       1.93402      .   S
    N2     O23       4.86748  1_455   S
    Zr21   O24       1.71575      .   S
    N12    O24       4.15508      .   S
    Zr21   O25       1.70204      .   S
    N1     O25       4.13886      .   S
    Zr26   O27       1.70743      .   S
    N0     O27       4.15210      .   S
    Zr26   O28       1.95401      .   S
    N6     O28       4.88111      .   S
    Zr26   O29       1.93975      .   S
    N3     O29       4.88294      .   S
    Zr26   O30       1.71953      .   S
    N13    O30       4.16407  1_655   S
    Zr31   O32       1.93959      .   S
    N7     O32       4.88145  1_554   S
    Zr31   O33       1.71543      .   S
    N9     O33       4.15409      .   S
    Zr31   O34       1.70487      .   S
    N5     O34       4.14606      .   S
    Zr31   O35       1.95083      .   S
    N2     O35       4.87551      .   S
    Zr36   O37       1.94150      .   S
    N10    O37       4.88711      .   S
    Zr36   O38       1.71425  1_465   S
    N5     O38       4.15171      .   S
    Zr36   O39       1.95364  1_565   S
    N14    O39       4.87876      .   S
    Zr36   O40       1.70130  1_455   S
    N9     O40       4.13735      .   S
    Zr41   O42       1.95874  1_545   S
    N11    O42       4.88834  1_655   S
    Zr41   O43       1.70181      .   S
    N12    O43       4.13866      .   S
    Zr41   O44       1.71479  1_545   S
    N1     O44       4.15230      .   S
    Zr41   O45       1.93387      .   S
    N15    O45       4.86580  1_656   S
    Zr46   O47       1.95822  1_545   S
    N10    O47       4.88624      .   S
    Zr46   O48       1.72000  1_545   S
    N0     O48       4.16519  1_455   S
    Zr46   O49       1.70698      .   S
    N13    O49       4.15076      .   S
    Zr46   O50       1.93407      .   S
    N14    O50       4.86833  1_556   S
    Zr51   O52       1.95611      .   S
    N3     O52       4.88589      .   S
    Zr51   O53       1.70283  1_655   S
    N4     O53       4.14038      .   S
    Zr51   O54       1.93538      .   S
    N6     O54       4.86917  1_554   S
    Zr51   O55       1.71416  1_655   S
    N8     O55       4.15109      .   S
