# CIF file generated by openbabel 2.4.90, see http://openbabel.sf.net
data_I
_chemical_name_common ''
_cell_length_a 13.217
_cell_length_b 14.829
_cell_length_c 21.942
_cell_angle_alpha 89.925
_cell_angle_beta 90.037
_cell_angle_gamma 90.032
_space_group_name_H-M_alt 'P 1'
_space_group_name_Hall 'P 1'
loop_
    _symmetry_equiv_pos_as_xyz
    x,y,z
loop_
    _atom_site_label
    _atom_site_type_symbol
    _atom_site_fract_x
    _atom_site_fract_y
    _atom_site_fract_z
    _atom_site_occupancy
    Zr0     Zr   0.41713   0.48460   0.80045   1.000
    Zr1     Zr   0.91974   0.48460   0.80251   1.000
    Zr2     Zr   0.33317   0.51550   0.30120   1.000
    Zr3     Zr   0.83114   0.51545   0.30104   1.000
    Zr4     Zr   0.08054   0.98458   0.69869   1.000
    Zr5     Zr   0.58280   0.98453   0.69875   1.000
    Zr6     Zr   0.16854   0.01516   0.19747   1.000
    Zr7     Zr   0.66712   0.01558   0.19784   1.000
    N8      N    0.00582   0.76591   0.24005   1.000
    O9      O    0.14717   0.66834   0.26961   1.000
    O10     O    0.86102   0.86368   0.21769   1.000
    N11     N    0.50559   0.76575   0.23990   1.000
    O12     O    0.64625   0.66831   0.26955   1.000
    O13     O    0.36148   0.86336   0.21733   1.000
    N14     N    0.17707   0.55434   0.52897   1.000
    O15     O    0.27285   0.52137   0.64724   1.000
    O16     O    0.02435   0.52705   0.43328   1.000
    N17     N    0.68048   0.55300   0.52979   1.000
    O18     O    0.77679   0.52067   0.64822   1.000
    O19     O    0.52699   0.52647   0.43384   1.000
    N20     N    0.24420   0.23351   0.74096   1.000
    O21     O    0.10415   0.33138   0.77082   1.000
    O22     O    0.38898   0.13602   0.71850   1.000
    N23     N    0.74435   0.23493   0.74007   1.000
    O24     O    0.60302   0.33216   0.76931   1.000
    O25     O    0.88819   0.13690   0.71797   1.000
    N26     N    0.57073   0.44598   0.02874   1.000
    O27     O    0.47534   0.47884   0.14710   1.000
    O28     O    0.72438   0.47320   0.93365   1.000
    N29     N    0.07022   0.44651   0.02891   1.000
    O30     O    0.97407   0.47908   0.14711   1.000
    O31     O    0.22381   0.47331   0.93319   1.000
    N32     N    0.25598   0.73484   0.75983   1.000
    O33     O    0.39718   0.83200   0.73021   1.000
    O34     O    0.11211   0.63694   0.78247   1.000
    N35     N    0.75545   0.73372   0.75959   1.000
    O36     O    0.89594   0.83140   0.73005   1.000
    O37     O    0.61070   0.63626   0.78140   1.000
    N38     N    0.42916   0.94613   0.47083   1.000
    O39     O    0.52468   0.97696   0.35215   1.000
    O40     O    0.27573   0.97330   0.56674   1.000
    N41     N    0.93081   0.94540   0.47063   1.000
    O42     O    0.02638   0.97649   0.35192   1.000
    O43     O    0.77764   0.97290   0.56667   1.000
    N44     N    0.49352   0.26602   0.25876   1.000
    O45     O    0.35302   0.16838   0.22911   1.000
    O46     O    0.63794   0.36360   0.28121   1.000
    N47     N    0.99419   0.26601   0.25930   1.000
    O48     O    0.85299   0.16846   0.22958   1.000
    O49     O    0.13910   0.36369   0.28158   1.000
    N50     N    0.31913   0.05395   0.97092   1.000
    O51     O    0.22309   0.02112   0.85276   1.000
    O52     O    0.47288   0.02692   0.06612   1.000
    N53     N    0.82009   0.05539   0.97112   1.000
    O54     O    0.72469   0.02187   0.85290   1.000
    O55     O    0.97428   0.02775   0.06584   1.000
loop_
    _geom_bond_atom_site_label_1
    _geom_bond_atom_site_label_2
    _geom_bond_distance
    _geom_bond_site_symmetry_2
    _ccdc_geom_bond_type
    N8     O9        2.45021      .   S
    Zr2    O9        3.41486      .   S
    N8     O10       2.45061  1_455   S
    Zr7    O10       3.44000  1_545   S
    N11    O12       2.44255      .   S
    Zr3    O12       3.40408      .   S
    N11    O13       2.44310      .   S
    Zr6    O13       3.42959  1_545   S
    N14    O15       2.92733      .   S
    Zr0    O15       3.90167      .   S
    N14    O16       2.93968      .   S
    Zr3    O16       3.86803  1_655   S
    N17    O18       2.93185      .   S
    Zr1    O18       3.91223      .   S
    N17    O19       2.94930      .   S
    Zr2    O19       3.87949      .   S
    N20    O21       2.44316      .   S
    Zr1    O21       3.40565  1_655   S
    N20    O22       2.44963      .   S
    Zr5    O22       3.43615  1_565   S
    N23    O24       2.44676      .   S
    Zr0    O24       3.40974      .   S
    N23    O25       2.44303      .   S
    Zr4    O25       3.42851  1_465   S
    N26    O27       2.92929      .   S
    Zr2    O27       3.90801      .   S
    N26    O28       2.93991  1_554   S
    Zr1    O28       3.87076      .   S
    N29    O30       2.92980  1_455   S
    Zr3    O30       3.90903      .   S
    N29    O31       2.94816  1_554   S
    Zr0    O31       3.87918      .   S
    N32    O33       2.44491      .   S
    Zr5    O33       3.40635      .   S
    N32    O34       2.44258      .   S
    Zr1    O34       3.42832  1_655   S
    N35    O36       2.44178      .   S
    Zr4    O36       3.40260  1_455   S
    N35    O37       2.44420      .   S
    Zr0    O37       3.43086      .   S
    N38    O39       2.92989      .   S
    Zr7    O39       3.91643  1_545   S
    N38    O40       2.95165      .   S
    Zr4    O40       3.88300      .   S
    N41    O42       2.93139  1_655   S
    Zr6    O42       3.91748  1_545   S
    N41    O43       2.95198      .   S
    Zr5    O43       3.88226      .   S
    N44    O45       2.44257      .   S
    Zr6    O45       3.40362      .   S
    N44    O46       2.44491      .   S
    Zr3    O46       3.43149      .   S
    N47    O48       2.44935      .   S
    Zr7    O48       3.41396      .   S
    N47    O49       2.45002  1_655   S
    Zr2    O49       3.43906      .   S
    N50    O51       2.92720      .   S
    Zr4    O51       3.90728  1_565   S
    N50    O52       2.94052  1_556   S
    Zr7    O52       3.86814      .   S
    N53    O54       2.92655      .   S
    Zr5    O54       3.90629  1_565   S
    N53    O55       2.93822  1_556   S
    Zr6    O55       3.86773  1_455   S
