# CIF file generated by openbabel 2.4.90, see http://openbabel.sf.net
data_I
_chemical_name_common ''
_cell_length_a 9.387
_cell_length_b 10.539
_cell_length_c 10.5695
_cell_angle_alpha 91.038
_cell_angle_beta 99.331
_cell_angle_gamma 99.599
_space_group_name_H-M_alt 'P 1'
_space_group_name_Hall 'P 1'
loop_
    _symmetry_equiv_pos_as_xyz
    x,y,z
loop_
    _atom_site_label
    _atom_site_type_symbol
    _atom_site_fract_x
    _atom_site_fract_y
    _atom_site_fract_z
    _atom_site_occupancy
    N0      N    0.49999   0.00000   0.50001   1.000
    N1      N    1.00000   0.50000   0.00001   1.000
    Zr2     Zr   0.75012   0.97966   0.02103   1.000
    O3      O    0.82229   0.83920   0.01579   1.000
    O4      O    0.83285   0.12765   0.01792   1.000
    O5      O    0.66792   0.98252   0.87252   1.000
    O6      O    0.67755   0.98527   0.16107   1.000
    Zr7     Zr   0.24986   0.02034   0.97898   1.000
    O8      O    0.16713   0.87235   0.98209   1.000
    O9      O    0.33207   0.01748   0.12749   1.000
    O10     O    0.17770   0.16080   0.98422   1.000
    O11     O    0.32243   0.01473   0.83894   1.000
loop_
    _geom_bond_atom_site_label_1
    _geom_bond_atom_site_label_2
    _geom_bond_distance
    _geom_bond_site_symmetry_2
    _ccdc_geom_bond_type
    Zr2    O3        1.73110      .   S
    N1     O3        4.20091      .   S
    Zr2    O4        1.62578  1_565   S
    N1     O4        3.99581      .   S
    Zr2    O5        1.63617  1_554   S
    N0     O5        4.01640  1_545   S
    Zr2    O6        1.73073      .   S
    N0     O6        4.19979  1_545   S
    Zr7    O8        1.62578  1_545   S
    N1     O8        3.99579  1_654   S
    Zr7    O9        1.63617  1_556   S
    N0     O9        4.01641      .   S
    Zr7    O10       1.73108      .   S
    N1     O10       4.20088  1_654   S
    Zr7    O11       1.73073      .   S
    N0     O11       4.19979      .   S
