# CIF file generated by openbabel 2.4.90, see http://openbabel.sf.net
data_I
_chemical_name_common ''
_cell_length_a 14.528
_cell_length_b 15.81
_cell_length_c 18.955
_cell_angle_alpha 90.014
_cell_angle_beta 90.794
_cell_angle_gamma 90.077
_space_group_name_H-M_alt 'P 1'
_space_group_name_Hall 'P 1'
loop_
    _symmetry_equiv_pos_as_xyz
    x,y,z
loop_
    _atom_site_label
    _atom_site_type_symbol
    _atom_site_fract_x
    _atom_site_fract_y
    _atom_site_fract_z
    _atom_site_occupancy
    Zn0     Zn   0.65693   0.64040   0.03439   1.000
    Zn1     Zn   0.53105   0.93003   0.53981   1.000
    Zn2     Zn   0.34452   0.86297   0.53115   1.000
    Zn3     Zn   0.53108   0.42988   0.96049   1.000
    Zn4     Zn   0.34403   0.36349   0.96577   1.000
    Zn5     Zn   0.46880   0.07360   0.46016   1.000
    Zn6     Zn   0.65552   0.14053   0.46889   1.000
    Zn7     Zn   0.02804   0.07364   0.96063   1.000
    Zn8     Zn   0.84335   0.14034   0.96567   1.000
    Zn9     Zn   0.96806   0.43008   0.46014   1.000
    Zn10    Zn   0.15288   0.36317   0.46877   1.000
    Zn11    Zn   0.96887   0.92990   0.03948   1.000
    Zn12    Zn   0.15583   0.86352   0.03434   1.000
    Zn13    Zn   0.03075   0.57374   0.53987   1.000
    Zn14    Zn   0.84389   0.64005   0.53127   1.000
    H15     H    0.65282   0.49546   0.03483   1.000
    H16     H    0.35016   0.00787   0.53475   1.000
    Zn17    Zn   0.47223   0.57353   0.03946   1.000
    H18     H    0.35047   0.50840   0.96510   1.000
    H19     H    0.64930   0.99579   0.46520   1.000
    H20     H    0.84731   0.99552   0.96517   1.000
    H21     H    0.14891   0.50794   0.46514   1.000
    H22     H    0.14951   0.00841   0.03496   1.000
    H23     H    0.84943   0.49531   0.53486   1.000
    C24     C    0.81074   0.53682   0.03453   1.000
    C25     C    0.54109   0.65164   0.16310   1.000
    C26     C    0.47925   0.79569   0.43803   1.000
    C27     C    0.19087   0.96629   0.53325   1.000
    C28     C    0.46341   0.85024   0.66148   1.000
    C29     C    0.52349   0.70802   0.93872   1.000
    C30     C    0.19029   0.46676   0.96549   1.000
    O31     O    0.74179   0.00000   0.94752   1.000
    O32     O    0.95665   0.34029   0.53385   1.000
    O33     O    0.10117   0.28541   0.53726   1.000
    O34     O    0.90293   0.02219   0.99078   1.000
    C35     C    0.46115   0.35198   0.83711   1.000
    C36     C    0.52084   0.20794   0.56189   1.000
    C37     C    0.80859   0.03677   0.46669   1.000
    C38     C    0.53732   0.15195   0.33811   1.000
    C39     C    0.47910   0.29550   0.06101   1.000
    C40     C    0.68934   0.03688   0.96541   1.000
    C41     C    0.95890   0.15159   0.83696   1.000
    C42     C    0.02016   0.29547   0.56202   1.000
    C43     C    0.30696   0.46670   0.46672   1.000
    C44     C    0.03446   0.35180   0.33808   1.000
    C45     C    0.97840   0.20833   0.06089   1.000
    C46     C    0.30976   0.96667   0.03444   1.000
    C47     C    0.03792   0.85189   0.16282   1.000
    C48     C    0.97857   0.70723   0.43787   1.000
    C49     C    0.68975   0.53692   0.53321   1.000
    C50     C    0.96235   0.65185   0.66194   1.000
    C51     C    0.02080   0.79537   0.93906   1.000
    O52     O    0.47247   0.61104   0.13584   1.000
    O53     O    0.61679   0.66687   0.13250   1.000
    O54     O    0.78588   0.61559   0.02799   1.000
    O55     O    0.75820   0.47731   0.05242   1.000
    O56     O    0.54298   0.84043   0.46620   1.000
    O57     O    0.39818   0.78576   0.46271   1.000
    O58     O    0.59723   0.52217   0.00925   1.000
    O59     O    0.53129   0.89238   0.63612   1.000
    O60     O    0.38831   0.83367   0.62896   1.000
    O61     O    0.21552   0.88769   0.52498   1.000
    O62     O    0.24386   0.02543   0.55222   1.000
    O63     O    0.45983   0.66337   0.96571   1.000
    O64     O    0.60434   0.71843   0.96544   1.000
    O65     O    0.40456   0.98130   0.50906   1.000
    O66     O    0.53011   0.39245   0.86409   1.000
    O67     O    0.38563   0.33688   0.86795   1.000
    O68     O    0.21507   0.38789   0.97209   1.000
    O69     O    0.24282   0.52618   0.94763   1.000
    O70     O    0.45700   0.16326   0.53381   1.000
    O71     O    0.60182   0.21792   0.53703   1.000
    O72     O    0.40555   0.48141   0.99063   1.000
    O73     O    0.46857   0.11131   0.36377   1.000
    O74     O    0.61291   0.16710   0.37045   1.000
    O75     O    0.78440   0.11546   0.47513   1.000
    O76     O    0.75517   0.00000   0.44777   1.000
    O77     O    0.54303   0.34014   0.03433   1.000
    O78     O    0.39830   0.28541   0.03416   1.000
    O79     O    0.59492   0.02236   0.49098   1.000
    O80     O    0.02750   0.11105   0.86419   1.000
    O81     O    0.88323   0.16677   0.86755   1.000
    O82     O    0.71437   0.11567   0.97208   1.000
    O83     O    0.96564   0.39228   0.36370   1.000
    O84     O    0.10983   0.33657   0.37060   1.000
    O85     O    0.28196   0.38820   0.47504   1.000
    O86     O    0.25410   0.52584   0.44770   1.000
    O87     O    0.04226   0.16355   0.03436   1.000
    O88     O    0.89772   0.21838   0.03390   1.000
    O89     O    0.09409   0.48152   0.49084   1.000
    O90     O    0.96910   0.89245   0.13586   1.000
    O91     O    0.11352   0.83700   0.13207   1.000
    O92     O    0.28482   0.88775   0.02798   1.000
    O93     O    0.25742   0.02607   0.05239   1.000
    O94     O    0.04276   0.66325   0.46614   1.000
    O95     O    0.89750   0.71658   0.46263   1.000
    O96     O    0.09446   0.98141   0.00936   1.000
    O97     O    0.03113   0.61135   0.63624   1.000
    O98     O    0.88687   0.66705   0.62956   1.000
    O99     O    0.71474   0.61547   0.52485   1.000
    O100    O    0.74252   0.47783   0.55229   1.000
    O101    O    0.95695   0.84003   0.96570   1.000
    O102    O    0.10159   0.78537   0.96589   1.000
    O103    O    0.90376   0.52205   0.50919   1.000
    Og104   Og   0.84351   0.53089   0.02887   1.000
    Og105   Og   0.53692   0.66239   0.18749   1.000
    Og106   Og   0.48580   0.78136   0.41530   1.000
    Og107   Og   0.15786   0.97222   0.52780   1.000
    Og108   Og   0.46758   0.83949   0.68596   1.000
    Og109   Og   0.51713   0.72208   0.91570   1.000
    Og110   Og   0.15750   0.47267   0.97113   1.000
    Og111   Og   0.46510   0.34122   0.81270   1.000
    Og112   Og   0.51443   0.22226   0.58466   1.000
    Og113   Og   0.84159   0.03073   0.47207   1.000
    Og114   Og   0.53334   0.16272   0.31361   1.000
    Og115   Og   0.48533   0.28127   0.08400   1.000
    Og116   Og   0.65655   0.03094   0.97101   1.000
    Og117   Og   0.96305   0.16234   0.81258   1.000
    Og118   Og   0.01365   0.28117   0.58476   1.000
    Og119   Og   0.34001   0.47265   0.47214   1.000
    Og120   Og   0.03068   0.34109   0.31355   1.000
    Og121   Og   0.98560   0.22262   0.08385   1.000
    Og122   Og   0.34254   0.97258   0.02874   1.000
    Og123   Og   0.03388   0.84102   0.18718   1.000
    Og124   Og   0.98571   0.72152   0.41508   1.000
    Og125   Og   0.65670   0.53099   0.52777   1.000
    Og126   Og   0.96632   0.66257   0.68646   1.000
    Og127   Og   0.01452   0.78109   0.91610   1.000
loop_
    _geom_bond_atom_site_label_1
    _geom_bond_atom_site_label_2
    _geom_bond_distance
    _geom_bond_site_symmetry_2
    _ccdc_geom_bond_type
    O58    H15       1.02749      .   S
    O58    Zn3       1.96917  1_554   S
    O96    H22       1.02245  1_565   S
    O96    Zn7       1.97244  1_564   S
    O92    Zn12      1.91773      .   S
    O92    C46       1.30398      .   S
    O54    Zn0       1.92000      .   S
    O54    C24       1.30261      .   S
    O88    C45       1.28260      .   S
    O88    Zn8       1.94604  1_554   S
    O78    C39       1.28274      .   S
    O78    Zn4       1.94968  1_554   S
    O77    C39       1.27588      .   S
    O77    Zn3       1.99920  1_554   S
    Zn12   O91       2.00410      .   S
    Zn12   O102      1.94913  1_554   S
    O87    C45       1.27630  1_455   S
    O87    Zn7       2.00178  1_554   S
    Zn0    O53       2.00097      .   S
    Zn0    O64       1.94672  1_554   S
    C46    O93       1.25894  1_565   S
    C24    O55       1.26033      .   S
    Zn17   O52       1.92043      .   S
    Zn17   O63       1.99965  1_554   S
    Zn17   O72       1.97156  1_554   S
    Zn11   O90       1.92057      .   S
    Zn11   O101      1.99913  1_554   S
    Zn11   O34       1.96946  1_564   S
    O91    C47       1.27276      .   S
    O53    C25       1.27319      .   S
    O52    C25       1.28727      .   S
    O90    C47       1.28813  1_655   S
    C44    O83       1.28845  1_455   S
    C44    O84       1.27248      .   S
    C38    O73       1.28798      .   S
    C38    O74       1.27266      .   S
    O83    Zn9       1.92291      .   S
    O73    Zn5       1.92183      .   S
    O74    Zn6       2.00266      .   S
    O84    Zn10      1.99942      .   S
    C48    O95       1.28255      .   S
    C48    O94       1.27595  1_655   S
    C26    O57       1.28270      .   S
    C26    O56       1.27559      .   S
    O86    C43       1.26034      .   S
    O76    C37       1.02951      .   S
    Zn9    O103      1.96931      .   S
    Zn9    O32       2.00034      .   S
    Zn5    O65       1.96996  1_545   S
    Zn5    O70       1.99851      .   S
    O95    Zn14      1.94676      .   S
    O57    Zn2       1.95215      .   S
    H21    O89       1.02751      .   S
    H19    O79       1.02523  1_565   S
    O94    Zn13      1.99831      .   S
    O56    Zn1       1.99744      .   S
    C37    O75       1.30363      .   S
    C43    O85       1.30293      .   S
    Zn10   O85       1.91817      .   S
    Zn10   O33       1.94577      .   S
    Zn6    O75       1.91646      .   S
    Zn6    O71       1.95031      .   S
    O89    Zn13      1.96555      .   S
    O79    Zn1       1.96704  1_545   S
    O65    H16       1.02453  1_565   S
    O103   H23       1.02383      .   S
    O99    Zn14      1.91772      .   S
    O99    C49       1.30372      .   S
    O61    Zn2       1.91689      .   S
    O61    C27       1.30376      .   S
    Zn2    O60       2.00611      .   S
    Zn14   O98       2.00251      .   S
    C49    O100      1.25934      .   S
    C27    O62       1.25947  1_565   S
    O70    C36       1.27542      .   S
    O32    C42       1.27553  1_655   S
    O71    C36       1.28303      .   S
    O33    C42       1.28318      .   S
    Zn1    O59       1.92023      .   S
    Zn13   O97       1.92088      .   S
    O60    C28       1.27268      .   S
    O98    C50       1.27251      .   S
    O59    C28       1.28798      .   S
    O97    C50       1.28860  1_455   S
    C41    O80       1.28761  1_655   S
    C41    O81       1.27305      .   S
    C35    O66       1.28782      .   S
    C35    O67       1.27259      .   S
    O66    Zn3       1.92053      .   S
    O80    Zn7       1.92128      .   S
    O81    Zn8       1.99980      .   S
    O67    Zn4       2.00284      .   S
    C29    O64       1.28302      .   S
    C29    O63       1.27559      .   S
    C51    O101      1.27619  1_455   S
    C51    O102      1.28272      .   S
    O31    C40       1.02172      .   S
    O69    C30       1.25899      .   S
    H18    O72       1.02323      .   S
    H20    O34       1.02699  1_565   S
    C40    O82       1.30280      .   S
    C30    O68       1.30386      .   S
    Zn8    O82       1.91903      .   S
    Zn4    O68       1.91871      .   S
    O58    Zn17      2.07791      .   S
    O58    Zn0       2.11112      .   S
    O65    Zn1       2.08529      .   S
    O65    Zn2       2.10756      .   S
    O72    Zn3       2.08536      .   S
    O72    Zn4       2.11663      .   S
    O79    Zn5       2.08072      .   S
    O79    Zn6       2.10874      .   S
    O34    Zn7       2.07776  1_655   S
    O34    Zn8       2.11140      .   S
    O89    Zn9       2.07813  1_455   S
    O89    Zn10      2.10216      .   S
    O96    Zn11      2.08409  1_455   S
    O96    Zn12      2.11797      .   S
    O103   Zn13      2.09181  1_655   S
    O103   Zn14      2.10389      .   S
    C24    Og104     0.49843      .   S
    C25    Og105     0.49700      .   S
    C26    Og106     0.49724      .   S
    C27    Og107     0.49816      .   S
    C28    Og108     0.49725      .   S
    C29    Og109     0.49726      .   S
    C30    Og110     0.49860      .   S
    C35    Og111     0.49705      .   S
    C36    Og112     0.49717      .   S
    C37    Og113     0.49813      .   S
    C38    Og114     0.49741      .   S
    C39    Og115     0.49756      .   S
    C40    Og116     0.49834      .   S
    C41    Og117     0.49688      .   S
    C42    Og118     0.49699      .   S
    C43    Og119     0.49833      .   S
    C44    Og120     0.49701      .   S
    C45    Og121     0.50009      .   S
    C46    Og122     0.49852      .   S
    C47    Og123     0.49704      .   S
    C48    Og124     0.49965      .   S
    C49    Og125     0.49848      .   S
    C50    Og126     0.49733      .   S
    C51    Og127     0.49751      .   S
