# CIF file generated by openbabel 2.4.90, see http://openbabel.sf.net
data_I
_chemical_name_common ''
_cell_length_a 13.449
_cell_length_b 13.571
_cell_length_c 13.962
_cell_angle_alpha 77.615
_cell_angle_beta 65.011
_cell_angle_gamma 63.881
_space_group_name_H-M_alt 'P 1'
_space_group_name_Hall 'P 1'
loop_
    _symmetry_equiv_pos_as_xyz
    x,y,z
loop_
    _atom_site_label
    _atom_site_type_symbol
    _atom_site_fract_x
    _atom_site_fract_y
    _atom_site_fract_z
    _atom_site_occupancy
    H0      H    0.14833   0.47616   0.56410   1.000
    H1      H    0.33831   0.32053   0.48380   1.000
    H2      H    0.64566   0.18028   0.10530   1.000
    H3      H    0.84207   0.17111   0.98317   1.000
    H4      H    0.99065   0.84371   0.11448   1.000
    H5      H    0.27759   0.97553   0.56002   1.000
    H6      H    0.78491   0.86983   0.23507   1.000
    H7      H    0.08782   0.95456   0.62908   1.000
    H8      H    0.01151   0.40443   0.36846   1.000
    H9      H    0.20894   0.25504   0.29460   1.000
    H10     H    0.26714   0.06610   0.26044   1.000
    H11     H    0.07444   0.05002   0.31651   1.000
    H12     H    0.85148   0.52333   0.43640   1.000
    H13     H    0.66154   0.67909   0.51660   1.000
    H14     H    0.35438   0.81966   0.89471   1.000
    H15     H    0.15798   0.82883   0.01684   1.000
    H16     H    0.00940   0.15625   0.88557   1.000
    H17     H    0.72279   0.02378   0.43973   1.000
    H18     H    0.21514   0.13012   0.76490   1.000
    H19     H    0.91264   0.04461   0.37062   1.000
    H20     H    0.98888   0.59622   0.63088   1.000
    H21     H    0.79139   0.74548   0.70478   1.000
    H22     H    0.73247   0.93465   0.73965   1.000
    H23     H    0.92506   0.95095   0.68362   1.000
    C24     C    0.15531   0.42933   0.50574   1.000
    C25     C    0.93871   0.00524   0.03611   1.000
    C26     C    0.05872   0.45479   0.47612   1.000
    C27     C    0.26280   0.34188   0.46121   1.000
    C28     C    0.72424   0.10673   0.10586   1.000
    C29     C    0.83712   0.10005   0.03570   1.000
    C30     C    0.91768   0.92055   0.10897   1.000
    C31     C    0.22939   0.99292   0.50830   1.000
    C32     C    0.80187   0.93404   0.17674   1.000
    C33     C    0.05879   0.00386   0.48042   1.000
    C34     C    0.12140   0.98116   0.54670   1.000
    C35     C    0.07994   0.38987   0.39809   1.000
    C36     C    0.19041   0.30455   0.35682   1.000
    C37     C    0.22296   0.04287   0.34210   1.000
    C38     C    0.11449   0.03350   0.37464   1.000
    C39     C    0.84463   0.57045   0.49453   1.000
    C40     C    0.06133   0.99471   0.96392   1.000
    C41     C    0.94137   0.54528   0.52384   1.000
    C42     C    0.73715   0.65793   0.53902   1.000
    C43     C    0.27580   0.89321   0.89416   1.000
    C44     C    0.16293   0.89989   0.96426   1.000
    C45     C    0.08236   0.07941   0.89100   1.000
    C46     C    0.77082   0.00671   0.49150   1.000
    C47     C    0.19818   0.06591   0.82329   1.000
    C48     C    0.94119   0.99621   0.51951   1.000
    C49     C    0.87883   0.01844   0.45311   1.000
    C50     C    0.92031   0.61050   0.60155   1.000
    C51     C    0.80981   0.69578   0.64280   1.000
    C52     C    0.77681   0.95759   0.65785   1.000
    C53     C    0.88524   0.96703   0.62539   1.000
    N54     N    0.70500   0.02594   0.17703   1.000
    N55     N    0.28117   0.27810   0.38845   1.000
    N56     N    0.27987   0.02581   0.40785   1.000
    N57     N    0.29505   0.97401   0.82299   1.000
    N58     N    0.71891   0.72195   0.61150   1.000
    N59     N    0.72012   0.97424   0.59208   1.000
loop_
    _geom_bond_atom_site_label_1
    _geom_bond_atom_site_label_2
    _geom_bond_distance
    _geom_bond_site_symmetry_2
    _ccdc_geom_bond_type
    H15    C44       1.08859  1_554   S
    C29    C25       1.40646      .   S
    C29    C28       1.39022      .   S
    C29    H3        1.08823  1_554   S
    C25    C30       1.40618  1_545   S
    C25    C40       1.48524  1_644   S
    H2     C28       1.08994      .   S
    C28    N54       1.34974      .   S
    C30    H4        1.08842      .   S
    C30    C32       1.39031      .   S
    C32    N54       1.34898  1_565   S
    C32    H6        1.09005      .   S
    H10    C37       1.09118      .   S
    H9     C36       1.09009      .   S
    H11    C38       1.08816      .   S
    C37    C38       1.38900      .   S
    C37    N56       1.35221      .   S
    C36    N55       1.34734      .   S
    C36    C35       1.38867      .   S
    H8     C35       1.08796      .   S
    H19    C49       1.08795      .   S
    C38    C33       1.40710      .   S
    N55    C27       1.34874      .   S
    C35    C26       1.40439      .   S
    N56    C31       1.34936  1_545   S
    H12    C39       1.08801      .   S
    H17    C46       1.08823      .   S
    C49    C46       1.38994      .   S
    C49    C48       1.40283  1_545   S
    C27    H1        1.08950      .   S
    C27    C24       1.38975      .   S
    C26    C24       1.40543      .   S
    C26    C41       1.48285  1_455   S
    C33    C48       1.48363  1_445   S
    C33    C34       1.40283  1_545   S
    C46    N59       1.34954  1_545   S
    C39    C41       1.40546      .   S
    C39    C42       1.38976      .   S
    C24    H0        1.08709      .   S
    C31    C34       1.38994      .   S
    C31    H5        1.08859      .   S
    H13    C42       1.08989      .   S
    C48    C53       1.40706      .   S
    C41    C50       1.40438      .   S
    C42    N58       1.34870      .   S
    C34    H7        1.08802      .   S
    N59    C52       1.35140      .   S
    C50    H20       1.08796      .   S
    C50    C51       1.38855      .   S
    N58    C51       1.34683      .   S
    C53    C52       1.38915      .   S
    C53    H23       1.08821      .   S
    C51    H21       1.08970      .   S
    C52    H22       1.09195      .   S
    H18    C47       1.09046      .   S
    N57    C47       1.34900  1_565   S
    N57    C43       1.34975      .   S
    C47    C45       1.39009      .   S
    H16    C45       1.08816      .   S
    C45    C40       1.40661  1_545   S
    C43    H14       1.08995      .   S
    C43    C44       1.39000      .   S
    C40    C44       1.40628      .   S
