# CIF file generated by openbabel 2.4.90, see http://openbabel.sf.net
data_I
_chemical_name_common ''
_cell_length_a 13.449
_cell_length_b 13.571
_cell_length_c 13.962
_cell_angle_alpha 77.615
_cell_angle_beta 65.011
_cell_angle_gamma 63.881
_space_group_name_H-M_alt 'P 1'
_space_group_name_Hall 'P 1'
loop_
    _symmetry_equiv_pos_as_xyz
    x,y,z
loop_
    _atom_site_label
    _atom_site_type_symbol
    _atom_site_fract_x
    _atom_site_fract_y
    _atom_site_fract_z
    _atom_site_occupancy
    Zr0     Zr   0.48051   0.07907   0.33808   1.000
    Zr1     Zr   0.51951   0.92088   0.66191   1.000
    Zr2     Zr   0.63130   0.89835   0.43045   1.000
    Zr3     Zr   0.42852   0.15559   0.15617   1.000
    Zr4     Zr   0.57693   0.21042   0.36170   1.000
    Zr5     Zr   0.36862   0.10147   0.56955   1.000
    Zr6     Zr   0.57161   0.84439   0.84375   1.000
    Zr7     Zr   0.42311   0.78943   0.63841   1.000
    O8      O    0.45451   0.11733   0.24712   1.000
    O9      O    0.52872   0.14475   0.34989   1.000
    O10     O    0.55590   0.98871   0.38426   1.000
    O11     O    0.44407   0.01117   0.61573   1.000
    O12     O    0.47131   0.85515   0.65016   1.000
    O13     O    0.54556   0.88263   0.75283   1.000
    N14     N    0.00005   0.50003   0.49996   1.000
    O15     O    0.19044   0.33931   0.43161   1.000
    O16     O    0.80963   0.66072   0.56833   1.000
    N17     N    0.00002   0.99997   0.00000   1.000
    O18     O    0.79639   0.02624   0.12878   1.000
    O19     O    0.20365   0.97371   0.87123   1.000
    N20     N    0.59718   0.63771   0.14690   1.000
    O21     O    0.55186   0.80988   0.22159   1.000
    N22     N    0.99999   0.00003   0.49996   1.000
    O23     O    0.19009   0.02623   0.43646   1.000
    O24     O    0.80991   0.97379   0.56348   1.000
    N25     N    0.40281   0.36225   0.85306   1.000
    O26     O    0.44813   0.19008   0.77837   1.000
loop_
    _geom_bond_atom_site_label_1
    _geom_bond_atom_site_label_2
    _geom_bond_distance
    _geom_bond_site_symmetry_2
    _ccdc_geom_bond_type
    Zr3    O8        1.39172      .   S
    Zr0    O8        1.39172      .   S
    Zr0    O9        1.37995      .   S
    Zr4    O9        1.37995      .   S
    Zr0    O10       1.43742  1_545   S
    Zr2    O10       1.43742      .   S
    Zr5    O11       1.43733      .   S
    Zr1    O11       1.43733  1_565   S
    Zr7    O12       1.38005      .   S
    Zr1    O12       1.38005      .   S
    Zr1    O13       1.39160      .   S
    Zr6    O13       1.39160      .   S
    N14    O15       2.47706      .   S
    Zr0    O15       3.86526      .   S
    N14    O16       2.47700  1_455   S
    Zr1    O16       3.86501      .   S
    N17    O18       2.47290  1_465   S
    Zr0    O18       3.85091      .   S
    N17    O19       2.47284  1_554   S
    Zr1    O19       3.85081      .   S
    N20    O21       2.48461      .   S
    Zr0    O21       3.88002  1_545   S
    N22    O23       2.48978  1_655   S
    Zr0    O23       3.89446      .   S
    N22    O24       2.48984  1_545   S
    Zr1    O24       3.89467      .   S
    N25    O26       2.48456      .   S
    Zr1    O26       3.87993  1_565   S
