# CIF file generated by openbabel 2.4.90, see http://openbabel.sf.net
data_I
_chemical_name_common ''
_cell_length_a 19.518
_cell_length_b 19.551
_cell_length_c 19.542
_cell_angle_alpha 72.051
_cell_angle_beta 71.978
_cell_angle_gamma 71.943
_space_group_name_H-M_alt 'P 1'
_space_group_name_Hall 'P 1'
loop_
    _symmetry_equiv_pos_as_xyz
    x,y,z
loop_
    _atom_site_label
    _atom_site_type_symbol
    _atom_site_fract_x
    _atom_site_fract_y
    _atom_site_fract_z
    _atom_site_occupancy
    Lv0     Lv   0.59829   0.89808   0.55554   1.000
    Lv1     Lv   0.90048   0.55357   0.59862   1.000
    Lv2     Lv   0.68500   0.68328   0.68504   1.000
    Lv3     Lv   0.55533   0.59821   0.90043   1.000
    Lv4     Lv   0.59506   0.63816   0.29401   1.000
    Lv5     Lv   0.50853   0.50844   0.50870   1.000
    Lv6     Lv   0.29280   0.59386   0.63859   1.000
    Lv7     Lv   0.63796   0.29333   0.59490   1.000
    Lv8     Lv   0.00804   0.00855   0.00903   1.000
    Lv9     Lv   0.79261   0.13827   0.09548   1.000
    Lv10    Lv   0.09474   0.79377   0.13850   1.000
    Lv11    Lv   0.13776   0.09370   0.79371   1.000
    Lv12    Lv   0.40016   0.09813   0.05551   1.000
    Lv13    Lv   0.05493   0.39861   0.09915   1.000
    Lv14    Lv   0.18436   0.18346   0.18537   1.000
    Lv15    Lv   0.09786   0.05382   0.40011   1.000
