# CIF file generated by openbabel 2.4.90, see http://openbabel.sf.net
data_I
_chemical_name_common ''
_cell_length_a 19.518
_cell_length_b 19.551
_cell_length_c 19.542
_cell_angle_alpha 72.051
_cell_angle_beta 71.978
_cell_angle_gamma 71.943
_space_group_name_H-M_alt 'P 1'
_space_group_name_Hall 'P 1'
loop_
    _symmetry_equiv_pos_as_xyz
    x,y,z
loop_
    _atom_site_label
    _atom_site_type_symbol
    _atom_site_fract_x
    _atom_site_fract_y
    _atom_site_fract_z
    _atom_site_occupancy
    H0      H    0.48040   0.54873   0.02462   1.000
    H1      H    0.56373   0.72941   0.86433   1.000
    H2      H    0.62157   0.51533   0.81426   1.000
    H3      H    0.56092   0.75843   0.73437   1.000
    H4      H    0.66818   0.21250   0.14621   1.000
    H5      H    0.87920   0.07116   0.17776   1.000
    H6      H    0.82851   0.13145   0.96371   1.000
    H7      H    0.95891   0.13257   0.93427   1.000
    H8      H    0.02492   0.47929   0.54798   1.000
    H9      H    0.86451   0.56040   0.73042   1.000
    H10     H    0.81397   0.62070   0.51620   1.000
    H11     H    0.73416   0.55928   0.75984   1.000
    H12     H    0.14561   0.66998   0.21308   1.000
    H13     H    0.17681   0.88047   0.07166   1.000
    H14     H    0.96300   0.82895   0.13103   1.000
    H15     H    0.93318   0.95973   0.13316   1.000
    H16     H    0.54749   0.02188   0.48095   1.000
    H17     H    0.73003   0.86282   0.56304   1.000
    H18     H    0.51615   0.81144   0.62239   1.000
    H19     H    0.75983   0.73209   0.56088   1.000
    H20     H    0.21272   0.14328   0.66957   1.000
    H21     H    0.07136   0.17654   0.87992   1.000
    H22     H    0.12950   0.96246   0.82976   1.000
    H23     H    0.13213   0.93341   0.95973   1.000
    H24     H    0.04722   0.97934   0.52400   1.000
    H25     H    0.22969   0.06096   0.36461   1.000
    H26     H    0.01545   0.12088   0.31364   1.000
    H27     H    0.25944   0.05943   0.23430   1.000
    H28     H    0.71218   0.16915   0.64568   1.000
    H29     H    0.57180   0.38046   0.67688   1.000
    H30     H    0.63014   0.32847   0.46357   1.000
    H31     H    0.63288   0.45937   0.43383   1.000
    H32     H    0.98066   0.52281   0.04858   1.000
    H33     H    0.06279   0.36337   0.23050   1.000
    H34     H    0.12113   0.31158   0.01718   1.000
    H35     H    0.06000   0.23253   0.26024   1.000
    H36     H    0.16844   0.64368   0.71360   1.000
    H37     H    0.37869   0.67676   0.57160   1.000
    H38     H    0.32933   0.46235   0.63090   1.000
    H39     H    0.45935   0.43351   0.63257   1.000
    H40     H    0.52459   0.04845   0.98056   1.000
    H41     H    0.36351   0.22960   0.06338   1.000
    H42     H    0.31433   0.01514   0.12228   1.000
    H43     H    0.23356   0.25838   0.06153   1.000
    H44     H    0.64576   0.71268   0.17018   1.000
    H45     H    0.67742   0.57096   0.38051   1.000
    H46     H    0.46319   0.63112   0.32944   1.000
    H47     H    0.43345   0.63247   0.45981   1.000
    C48     C    0.55095   0.52454   0.92134   1.000
    C49     C    0.51285   0.57055   0.97030   1.000
    C50     C    0.51772   0.64444   0.94915   1.000
    C51     C    0.55974   0.67209   0.87900   1.000
    C52     C    0.59786   0.62647   0.82939   1.000
    C53     C    0.59318   0.55235   0.85150   1.000
    C54     C    0.64257   0.65565   0.75545   1.000
    C55     C    0.61539   0.72547   0.71274   1.000
    C56     C    0.74368   0.17644   0.04960   1.000
    C57     C    0.72264   0.18039   0.12382   1.000
    C58     C    0.77184   0.14181   0.16946   1.000
    C59     C    0.84178   0.09993   0.14098   1.000
    C60     C    0.86374   0.09598   0.06658   1.000
    C61     C    0.81388   0.13473   0.02120   1.000
    C62     C    0.93766   0.05117   0.03696   1.000
    C63     C    0.98042   0.07811   0.96700   1.000
    C64     C    0.92130   0.55002   0.52464   1.000
    C65     C    0.97046   0.51141   0.57033   1.000
    C66     C    0.94938   0.51540   0.64455   1.000
    C67     C    0.87915   0.55712   0.67283   1.000
    C68     C    0.82932   0.59586   0.62750   1.000
    C69     C    0.85134   0.59191   0.55309   1.000
    C70     C    0.75539   0.64066   0.65710   1.000
    C71     C    0.71264   0.61373   0.72704   1.000
    C72     C    0.04898   0.74476   0.17647   1.000
    C73     C    0.12318   0.72414   0.18077   1.000
    C74     C    0.16871   0.77341   0.14240   1.000
    C75     C    0.14013   0.84299   0.10033   1.000
    C76     C    0.06570   0.86458   0.09616   1.000
    C77     C    0.02054   0.81463   0.13461   1.000
    C78     C    0.03595   0.93829   0.05147   1.000
    C79     C    0.96600   0.98114   0.07865   1.000
    C80     C    0.52432   0.91849   0.55165   1.000
    C81     C    0.56989   0.96772   0.51326   1.000
    C82     C    0.64409   0.94705   0.51757   1.000
    C83     C    0.67248   0.87717   0.55940   1.000
    C84     C    0.62730   0.82725   0.59788   1.000
    C85     C    0.55286   0.84888   0.59371   1.000
    C86     C    0.65706   0.75354   0.64257   1.000
    C87     C    0.72702   0.71069   0.61539   1.000
    C88     C    0.17546   0.04751   0.74498   1.000
    C89     C    0.18025   0.12141   0.72388   1.000
    C90     C    0.14208   0.16739   0.77286   1.000
    C91     C    0.09982   0.13954   0.84266   1.000
    C92     C    0.09522   0.06540   0.86473   1.000
    C93     C    0.13343   0.01980   0.81506   1.000
    C94     C    0.05049   0.03619   0.93865   1.000
    C95     C    0.07765   0.96636   0.98135   1.000
    C96     C    0.02385   0.05010   0.42067   1.000
    C97     C    0.06957   0.01158   0.46979   1.000
    C98     C    0.14381   0.01567   0.44897   1.000
    C99     C    0.17210   0.05752   0.37906   1.000
    C100    C    0.12674   0.09616   0.32925   1.000
    C101    C    0.05227   0.09212   0.35101   1.000
    C102    C    0.15641   0.14092   0.25556   1.000
    C103    C    0.22652   0.11389   0.21286   1.000
    C104    C    0.67555   0.24410   0.54932   1.000
    C105    C    0.68005   0.22349   0.62333   1.000
    C106    C    0.64204   0.27299   0.66800   1.000
    C107    C    0.60019   0.34279   0.64029   1.000
    C108    C    0.59581   0.36433   0.56606   1.000
    C109    C    0.63390   0.31417   0.52097   1.000
    C110    C    0.55112   0.43815   0.53640   1.000
    C111    C    0.57829   0.48088   0.46667   1.000
    C112    C    0.05082   0.41900   0.02538   1.000
    C113    C    0.01281   0.46846   0.07089   1.000
    C114    C    0.01737   0.44782   0.14488   1.000
    C115    C    0.05901   0.37771   0.17310   1.000
    C116    C    0.09709   0.32759   0.12805   1.000
    C117    C    0.09271   0.34920   0.05382   1.000
    C118    C    0.14177   0.25375   0.15762   1.000
    C119    C    0.11459   0.21102   0.22740   1.000
    C120    C    0.24425   0.54762   0.67667   1.000
    C121    C    0.22285   0.62169   0.68113   1.000
    C122    C    0.27167   0.66769   0.64258   1.000
    C123    C    0.34159   0.63971   0.60033   1.000
    C124    C    0.36393   0.56545   0.59597   1.000
    C125    C    0.31443   0.51982   0.63450   1.000
    C126    C    0.43797   0.53618   0.55110   1.000
    C127    C    0.48088   0.46637   0.57817   1.000
    C128    C    0.42137   0.02433   0.05144   1.000
    C129    C    0.47014   0.07039   0.01299   1.000
    C130    C    0.44868   0.14442   0.01750   1.000
    C131    C    0.37846   0.17215   0.05966   1.000
    C132    C    0.32899   0.12647   0.09814   1.000
    C133    C    0.35140   0.05223   0.09368   1.000
    C134    C    0.25492   0.15570   0.14290   1.000
    C135    C    0.21202   0.22552   0.11591   1.000
    C136    C    0.54913   0.67639   0.24514   1.000
    C137    C    0.62339   0.68041   0.22437   1.000
    C138    C    0.66907   0.64183   0.27351   1.000
    C139    C    0.64061   0.59976   0.34312   1.000
    C140    C    0.56613   0.59578   0.36484   1.000
    C141    C    0.52080   0.63450   0.31502   1.000
    C142    C    0.53645   0.55098   0.43851   1.000
    C143    C    0.46635   0.57800   0.48124   1.000
loop_
    _geom_bond_atom_site_label_1
    _geom_bond_atom_site_label_2
    _geom_bond_distance
    _geom_bond_site_symmetry_2
    _ccdc_geom_bond_type
    C129   C130      1.39940      .   S
    C129   C128      1.39762      .   S
    C129   H40       1.08774  1_554   S
    H34    C117      1.08962      .   S
    C130   C131      1.40249      .   S
    C61    C56       1.40233      .   S
    C61    C60       1.40362      .   S
    C61    H6        1.08735  1_554   S
    H0     C49       1.08742  1_554   S
    C112   C117      1.40073      .   S
    C112   C113      1.39763      .   S
    C62    C60       1.48196      .   S
    C62    C79       1.40226  1_545   S
    C62    C63       1.40205  1_554   S
    H32    C113      1.08769  1_655   S
    C56    C57       1.39968      .   S
    C128   C133      1.40072      .   S
    C78    C79       1.40157  1_455   S
    C78    C76       1.48190      .   S
    C78    C95       1.40169  1_554   S
    C117   C116      1.40239      .   S
    C131   H41       1.08911      .   S
    C131   C132      1.40247      .   S
    H43    C135      1.09043      .   S
    C60    C59       1.40234      .   S
    C113   C114      1.39975      .   S
    H13    C75       1.08956      .   S
    C79    H15       1.09056      .   S
    C133   C132      1.40220      .   S
    C133   H42       1.08954      .   S
    C76    C75       1.40255      .   S
    C76    C77       1.40234      .   S
    C132   C134      1.48164      .   S
    C75    C74       1.40058      .   S
    C135   C134      1.40133      .   S
    C135   C118      1.40202      .   S
    C57    H4        1.08772      .   S
    C57    C58       1.39750      .   S
    C116   C118      1.48178      .   S
    C116   C115      1.40100      .   S
    H14    C77       1.08927  1_655   S
    C77    C72       1.40200      .   S
    C59    C58       1.40062      .   S
    C59    H5        1.08960      .   S
    C74    C73       1.39752      .   S
    C134   C103      1.40268      .   S
    C114   C115      1.40152      .   S
    C118   C119      1.40142      .   S
    H44    C137      1.08765      .   S
    C115   H33       1.08942      .   S
    C72    C73       1.39980      .   S
    C73    H12       1.08768      .   S
    C103   H27       1.09058      .   S
    C103   C102      1.40184      .   S
    C137   C136      1.39957      .   S
    C137   C138      1.39734      .   S
    C119   C102      1.40247      .   S
    C119   H35       1.09063      .   S
    C136   C141      1.40196      .   S
    C102   C100      1.48198      .   S
    C138   C139      1.40053      .   S
    H26    C101      1.08959      .   S
    C141   H46       1.08928      .   S
    C141   C140      1.40263      .   S
    C100   C101      1.40280      .   S
    C100   C99       1.40257      .   S
    C139   C140      1.40275      .   S
    C139   H45       1.08966      .   S
    C101   C96       1.40067      .   S
    H25    C99       1.08925      .   S
    C140   C142      1.48208      .   S
    C99    C98       1.40183      .   S
    C96    C97       1.39745      .   S
    H31    C111      1.09063      .   S
    C142   C111      1.40255      .   S
    C142   C143      1.40186      .   S
    C98    C97       1.39958      .   S
    H47    C143      1.09061      .   S
    H30    C109      1.08935      .   S
    C111   C110      1.40070      .   S
    C97    H24       1.08750  1_545   S
    H16    C81       1.08756  1_545   S
    C143   C126      1.40141      .   S
    C81    C82       1.39975      .   S
    C81    C80       1.39761      .   S
    H10    C69       1.09064      .   S
    C82    C83       1.40164      .   S
    C109   C104      1.40191      .   S
    C109   C108      1.40214      .   S
    C64    C69       1.40069      .   S
    C64    C65       1.39756      .   S
    C110   C108      1.48205      .   S
    C110   C127      1.40236      .   S
    H8     C65       1.08769  1_455   S
    C104   C105      1.39976      .   S
    C126   C127      1.40168      .   S
    C126   C124      1.48226      .   S
    C80    C85       1.40062      .   S
    C69    C68       1.40248      .   S
    C83    H17       1.08949      .   S
    C83    C84       1.40241      .   S
    H19    C87       1.09051      .   S
    C108   C107      1.40240      .   S
    C65    C66       1.39983      .   S
    H37    C123      1.08968      .   S
    C127   H39       1.09061      .   S
    C85    C84       1.40264      .   S
    C85    H18       1.08959      .   S
    C124   C123      1.40207      .   S
    C124   C125      1.40235      .   S
    C84    C86       1.48194      .   S
    C123   C122      1.40064      .   S
    C87    C86       1.40168      .   S
    C87    C70       1.40249      .   S
    C105   H28       1.08771      .   S
    C105   C106      1.38701      .   S
    C68    C70       1.48207      .   S
    C68    C67       1.40254      .   S
    H38    C125      1.08891      .   S
    C125   C120      1.40236      .   S
    C107   C106      1.39649      .   S
    C107   H29       1.08964      .   S
    C86    C55       1.40207      .   S
    C122   C121      1.39765      .   S
    C66    C67       1.40194      .   S
    C70    C71       1.40167      .   S
    H20    C89       1.08763      .   S
    C67    H9        1.08926      .   S
    C120   C121      1.39988      .   S
    C121   H36       1.08781      .   S
    C55    H3        1.09060      .   S
    C55    C54       1.40151      .   S
    C89    C88       1.39978      .   S
    C89    C90       1.39757      .   S
    C71    C54       1.40220      .   S
    C71    H11       1.09054      .   S
    C88    C93       1.40184      .   S
    C54    C52       1.48160      .   S
    C90    C91       1.40073      .   S
    H2     C53       1.08954      .   S
    C93    H22       1.08906  1_545   S
    C93    C92       1.40229      .   S
    C52    C53       1.40233      .   S
    C52    C51       1.40154      .   S
    C91    C92       1.40233      .   S
    C91    H21       1.08968      .   S
    C53    C48       1.40078      .   S
    H1     C51       1.08927      .   S
    C92    C94       1.48166      .   S
    C51    C50       1.40242      .   S
    C48    C49       1.39758      .   S
    H7     C63       1.09012      .   S
    C94    C63       1.40187  1_455   S
    C94    C95       1.40137  1_545   S
    C50    C49       1.39975      .   S
    H23    C95       1.09061      .   S
