# CIF file generated by openbabel 2.4.90, see http://openbabel.sf.net
data_I
_chemical_name_common ''
_cell_length_a 19.518
_cell_length_b 19.551
_cell_length_c 19.542
_cell_angle_alpha 72.051
_cell_angle_beta 71.978
_cell_angle_gamma 71.943
_space_group_name_H-M_alt 'P 1'
_space_group_name_Hall 'P 1'
loop_
    _symmetry_equiv_pos_as_xyz
    x,y,z
loop_
    _atom_site_label
    _atom_site_type_symbol
    _atom_site_fract_x
    _atom_site_fract_y
    _atom_site_fract_z
    _atom_site_occupancy
    Zn0     Zn   0.64315   0.21476   0.87635   1.000
    Zn1     Zn   0.98131   0.54925   0.31692   1.000
    Zn2     Zn   0.87689   0.64316   0.21300   1.000
    Zn3     Zn   0.31645   0.97755   0.55034   1.000
    Zn4     Zn   0.21172   0.87505   0.64435   1.000
    Zn5     Zn   0.81602   0.04866   0.48102   1.000
    Zn6     Zn   0.71224   0.14243   0.37717   1.000
    Zn7     Zn   0.04964   0.47744   0.81788   1.000
    Zn8     Zn   0.14485   0.37443   0.71289   1.000
    Zn9     Zn   0.48188   0.81704   0.04940   1.000
    Zn10    Zn   0.37657   0.71483   0.14359   1.000
    Zn11    Zn   0.54822   0.31750   0.98144   1.000
    C12     C    0.54770   0.44560   0.94349   1.000
    C13     C    0.48044   0.69282   0.00240   1.000
    C14     C    0.69005   0.21437   0.00166   1.000
    C15     C    0.74983   0.14424   0.24869   1.000
    C16     C    0.94338   0.54762   0.44540   1.000
    C17     C    0.00296   0.47751   0.69254   1.000
    C18     C    0.00125   0.69099   0.21397   1.000
    C19     C    0.24797   0.75176   0.14507   1.000
    O20     O    0.75841   0.98050   0.48886   1.000
    O21     O    0.18371   0.27283   0.68695   1.000
    O22     O    0.10868   0.28880   0.79528   1.000
    O23     O    0.20395   0.93289   0.71234   1.000
    C24     C    0.44505   0.94027   0.54898   1.000
    C25     C    0.69189   0.00076   0.48014   1.000
    C26     C    0.21280   0.99923   0.69162   1.000
    C27     C    0.14527   0.24635   0.75077   1.000
    C28     C    0.94455   0.04755   0.44277   1.000
    C29     C    0.19169   0.97793   0.50264   1.000
    C30     C    0.71277   0.19017   0.50164   1.000
    C31     C    0.64482   0.25139   0.74790   1.000
    C32     C    0.04801   0.44062   0.94631   1.000
    C33     C    0.98024   0.50168   0.19265   1.000
    C34     C    0.19114   0.49918   0.71444   1.000
    C35     C    0.24946   0.74678   0.64543   1.000
    C36     C    0.44371   0.94528   0.04847   1.000
    C37     C    0.50175   0.19292   0.97994   1.000
    C38     C    0.50132   0.71422   0.19141   1.000
    C39     C    0.74838   0.64432   0.25149   1.000
    O40     O    0.58419   0.40313   0.89896   1.000
    O41     O    0.50937   0.41914   0.00735   1.000
    O42     O    0.44276   0.66485   0.06526   1.000
    O43     O    0.48950   0.75909   0.98160   1.000
    O44     O    0.68571   0.18194   0.27583   1.000
    O45     O    0.79471   0.10757   0.29074   1.000
    O46     O    0.71076   0.20667   0.93486   1.000
    O47     O    0.62696   0.25118   0.03063   1.000
    O48     O    0.89866   0.58446   0.40323   1.000
    O49     O    0.00747   0.50976   0.41836   1.000
    O50     O    0.06609   0.44070   0.66365   1.000
    O51     O    0.98218   0.48527   0.75935   1.000
    O52     O    0.27509   0.68814   0.18326   1.000
    O53     O    0.29005   0.79652   0.10823   1.000
    O54     O    0.93458   0.71128   0.20567   1.000
    O55     O    0.03015   0.62825   0.25113   1.000
    O56     O    0.40292   0.89550   0.58557   1.000
    O57     O    0.41798   0.00405   0.51101   1.000
    O58     O    0.66323   0.06339   0.44265   1.000
    O59     O    0.25034   0.02737   0.62876   1.000
    O60     O    0.90210   0.08424   0.39831   1.000
    O61     O    0.91780   0.00948   0.50666   1.000
    O62     O    0.16273   0.94099   0.56545   1.000
    O63     O    0.25850   0.98581   0.48223   1.000
    O64     O    0.68264   0.18753   0.77506   1.000
    O65     O    0.60835   0.29649   0.78982   1.000
    O66     O    0.70412   0.21037   0.43521   1.000
    O67     O    0.75006   0.12741   0.53036   1.000
    O68     O    0.08477   0.39570   0.90427   1.000
    O69     O    0.00990   0.50436   0.91927   1.000
    O70     O    0.94311   0.56458   0.16399   1.000
    O71     O    0.98886   0.48131   0.25909   1.000
    O72     O    0.18546   0.77363   0.68350   1.000
    O73     O    0.29412   0.78899   0.60872   1.000
    O74     O    0.21218   0.43272   0.70570   1.000
    O75     O    0.12821   0.52727   0.75216   1.000
    O76     O    0.39902   0.90303   0.08478   1.000
    O77     O    0.50792   0.91847   0.01065   1.000
    O78     O    0.56471   0.16488   0.94222   1.000
    O79     O    0.48068   0.25933   0.98879   1.000
    O80     O    0.77519   0.68244   0.18765   1.000
    O81     O    0.79077   0.60755   0.29599   1.000
    O82     O    0.43444   0.70658   0.21179   1.000
    O83     O    0.53043   0.75102   0.12858   1.000
loop_
    _geom_bond_atom_site_label_1
    _geom_bond_atom_site_label_2
    _geom_bond_distance
    _geom_bond_site_symmetry_2
    _ccdc_geom_bond_type
    C14    O47       1.27486      .   S
    C14    O46       1.28337  1_554   S
    C13    O42       1.27482      .   S
    C13    O43       1.28387  1_554   S
    O41    C12       1.28414  1_554   S
    O41    Zn11      2.05633  1_554   S
    O77    C36       1.28451      .   S
    O77    Zn9       2.05560      .   S
    O47    Zn11      1.96917  1_554   S
    C36    O76       1.28425      .   S
    Zn9    O76       2.06366      .   S
    Zn9    O83       1.96884      .   S
    Zn9    O43       1.93908  1_554   S
    O42    Zn10      1.97048      .   S
    O53    Zn10      2.06156      .   S
    O53    C19       1.28465      .   S
    O83    C38       1.27486      .   S
    Zn10   O52       2.05867      .   S
    Zn10   O82       1.94008      .   S
    C19    O52       1.28394      .   S
    O70    C33       1.27482      .   S
    O70    Zn2       1.96419      .   S
    O80    Zn2       2.05047      .   S
    O80    C39       1.28469      .   S
    C38    O82       1.28361      .   S
    C33    O71       1.28363      .   S
    O54    Zn2       1.94278      .   S
    O54    C18       1.28366  1_655   S
    Zn2    O81       2.06967      .   S
    C18    O55       1.27491      .   S
    C15    O44       1.28433      .   S
    C15    O45       1.28429      .   S
    O55    Zn1       1.96930  1_455   S
    C39    O81       1.28404      .   S
    O71    Zn1       1.94002      .   S
    O44    Zn6       2.05682      .   S
    O45    Zn6       2.06285      .   S
    Zn1    O48       2.06503      .   S
    Zn1    O49       2.05554  1_655   S
    Zn6    O66       1.93987      .   S
    Zn6    O58       1.96998      .   S
    O60    C28       1.28402      .   S
    O60    Zn5       2.06650      .   S
    O48    C16       1.28416      .   S
    O49    C16       1.28457  1_455   S
    O66    C30       1.28376      .   S
    O58    C25       1.27475      .   S
    C28    O61       1.28458      .   S
    C25    O20       1.28377  1_545   S
    Zn5    O20       1.93905  1_545   S
    Zn5    O61       2.05425      .   S
    Zn5    O67       1.96865      .   S
    O63    C29       1.28372      .   S
    O63    Zn3       1.93990      .   S
    C30    O67       1.27481      .   S
    C29    O62       1.27482      .   S
    O57    C24       1.28394  1_545   S
    O57    Zn3       2.05772  1_545   S
    C24    O56       1.28454      .   S
    Zn3    O56       2.06283      .   S
    Zn3    O59       1.96972  1_565   S
    O62    Zn4       1.96894      .   S
    O73    Zn4       2.06245      .   S
    O73    C35       1.28452      .   S
    O59    C26       1.27474  1_545   S
    Zn4    O72       2.05719      .   S
    Zn4    O23       1.93965      .   S
    C35    O72       1.28397      .   S
    O50    C17       1.27473      .   S
    O50    Zn8       1.96979      .   S
    O21    Zn8       2.05592      .   S
    O21    C27       1.28462      .   S
    C26    O23       1.28366      .   S
    C17    O51       1.28391  1_455   S
    O74    Zn8       1.93924      .   S
    O74    C34       1.28402      .   S
    Zn8    O22       2.06433      .   S
    C34    O75       1.27463      .   S
    C31    O64       1.28383      .   S
    C31    O65       1.28474      .   S
    C27    O22       1.28405      .   S
    O75    Zn7       1.97151      .   S
    O51    Zn7       1.94022  1_655   S
    O64    Zn0       2.06071      .   S
    O65    Zn0       2.06074      .   S
    Zn7    O68       2.06108      .   S
    Zn7    O69       2.05992      .   S
    Zn0    O46       1.94093      .   S
    Zn0    O78       1.97079      .   S
    O40    C12       1.28425      .   S
    O40    Zn11      2.06369      .   S
    O68    C32       1.28461      .   S
    O69    C32       1.28393      .   S
    O78    C37       1.27469      .   S
    C37    O79       1.28388      .   S
    Zn11   O79       1.93993      .   S
