# CIF file generated by openbabel 2.4.90, see http://openbabel.sf.net
data_I
_chemical_name_common ''
_cell_length_a 19.518
_cell_length_b 19.551
_cell_length_c 19.542
_cell_angle_alpha 72.051
_cell_angle_beta 71.978
_cell_angle_gamma 71.943
_space_group_name_H-M_alt 'P 1'
_space_group_name_Hall 'P 1'
loop_
    _symmetry_equiv_pos_as_xyz
    x,y,z
loop_
    _atom_site_label
    _atom_site_type_symbol
    _atom_site_fract_x
    _atom_site_fract_y
    _atom_site_fract_z
    _atom_site_occupancy
    N0      N    0.59829   0.89808   0.55554   1.000
    N1      N    0.90048   0.55357   0.59862   1.000
    N2      N    0.68500   0.68328   0.68504   1.000
    O3      O    0.65262   0.76376   0.63646   1.000
    O4      O    0.76571   0.63460   0.65275   1.000
    N5      N    0.55533   0.59821   0.90043   1.000
    O6      O    0.60397   0.63019   0.81958   1.000
    N7      N    0.59506   0.63816   0.29401   1.000
    N8      N    0.50853   0.50844   0.50870   1.000
    O9      O    0.54085   0.55710   0.42827   1.000
    N10     N    0.29280   0.59386   0.63859   1.000
    O11     O    0.37377   0.56175   0.58985   1.000
    N12     N    0.63796   0.29333   0.59490   1.000
    O13     O    0.58948   0.37408   0.56243   1.000
    N14     N    0.00804   0.00855   0.00903   1.000
    N15     N    0.79261   0.13827   0.09548   1.000
    O16     O    0.87349   0.08967   0.06294   1.000
    N17     N    0.09474   0.79377   0.13850   1.000
    O18     O    0.06209   0.87438   0.08996   1.000
    N19     N    0.13776   0.09370   0.79371   1.000
    O20     O    0.08911   0.06169   0.87454   1.000
    N21     N    0.40016   0.09813   0.05551   1.000
    N22     N    0.05493   0.39861   0.09915   1.000
    N23     N    0.18436   0.18346   0.18537   1.000
    O24     O    0.26521   0.15153   0.13669   1.000
    O25     O    0.13577   0.26405   0.15318   1.000
    N26     N    0.09786   0.05382   0.40011   1.000
    O27     O    0.13041   0.10241   0.31950   1.000
    Zr28    Zr   0.27166   0.91900   0.59721   1.000
    O29     O    0.40657   0.91637   0.57507   1.000
    O30     O    0.21880   0.98877   0.67661   1.000
    O31     O    0.20223   0.97216   0.51758   1.000
    O32     O    0.27417   0.78478   0.61925   1.000
    Zr33    Zr   0.59595   0.27321   0.92132   1.000
    O34     O    0.67534   0.22002   0.99094   1.000
    O35     O    0.51682   0.20330   0.97422   1.000
    O36     O    0.61833   0.27548   0.78637   1.000
    O37     O    0.57414   0.40742   0.91887   1.000
    Zr38    Zr   0.42151   0.77312   0.09675   1.000
    O39     O    0.49082   0.71993   0.17645   1.000
    O40     O    0.28652   0.77565   0.11893   1.000
    O41     O    0.41893   0.90729   0.07474   1.000
    O42     O    0.47436   0.70327   0.01743   1.000
    Zr43    Zr   0.09697   0.41880   0.77296   1.000
    O44     O    0.01765   0.47190   0.70327   1.000
    O45     O    0.17611   0.48872   0.72002   1.000
    O46     O    0.07457   0.41651   0.90773   1.000
    O47     O    0.11885   0.28454   0.77536   1.000
    Zr48    Zr   0.92145   0.59619   0.27275   1.000
    O49     O    0.78667   0.61840   0.27551   1.000
    O50     O    0.97416   0.51644   0.20336   1.000
    O51     O    0.99069   0.67601   0.21981   1.000
    O52     O    0.91893   0.57369   0.40729   1.000
    Zr53    Zr   0.77167   0.09562   0.42143   1.000
    O54     O    0.90635   0.07347   0.41867   1.000
    O55     O    0.77420   0.11813   0.28685   1.000
    O56     O    0.71887   0.17543   0.49081   1.000
    O57     O    0.70241   0.01581   0.47431   1.000
loop_
    _geom_bond_atom_site_label_1
    _geom_bond_atom_site_label_2
    _geom_bond_distance
    _geom_bond_site_symmetry_2
    _ccdc_geom_bond_type
    N2     O3        1.61569      .   S
    N0     O3        2.69689      .   S
    N2     O4        1.61598      .   S
    N1     O4        2.69743      .   S
    N5     O6        1.61846      .   S
    N2     O6        2.69332      .   S
    N8     O9        1.61570      .   S
    N7     O9        2.69695      .   S
    N10    O11       1.61895      .   S
    N8     O11       2.69398      .   S
    N12    O13       1.61823      .   S
    N8     O13       2.69306      .   S
    N15    O16       1.61888      .   S
    N14    O16       2.69404  1_455   S
    N17    O18       1.61860      .   S
    N14    O18       2.69353  1_545   S
    N19    O20       1.61843      .   S
    N14    O20       2.69317  1_554   S
    N23    O24       1.61590      .   S
    N21    O24       2.69729      .   S
    N23    O25       1.61542      .   S
    N22    O25       2.69649      .   S
    N26    O27       1.61876      .   S
    N23    O27       2.69386      .   S
    Zr28   O29       2.51965      .   S
    N0     O29       3.55623      .   S
    Zr28   O30       2.18492      .   S
    N19    O30       3.25426  1_545   S
    Zr28   O31       2.18460      .   S
    N26    O31       3.25385  1_545   S
    Zr28   O32       2.51225      .   S
    N10    O32       3.54699      .   S
    Zr33   O34       2.18332      .   S
    N15    O34       3.25262  1_554   S
    Zr33   O35       2.18443      .   S
    N21    O35       3.25376  1_554   S
    Zr33   O36       2.52474      .   S
    N12    O36       3.55812      .   S
    Zr33   O37       2.51236      .   S
    N5     O37       3.54724      .   S
    Zr38   O39       2.18423      .   S
    N7     O39       3.25349      .   S
    Zr38   O40       2.52138      .   S
    N17    O40       3.55795      .   S
    Zr38   O41       2.51102      .   S
    N21    O41       3.54544  1_545   S
    Zr38   O42       2.18493      .   S
    N5     O42       3.25422  1_556   S
    Zr43   O44       2.18320      .   S
    N1     O44       3.25261  1_655   S
    Zr43   O45       2.18476      .   S
    N10    O45       3.25412      .   S
    Zr43   O46       2.52115      .   S
    N22    O46       3.55698  1_554   S
    Zr43   O47       2.51316      .   S
    N19    O47       3.54814      .   S
    Zr48   O49       2.51597      .   S
    N7     O49       3.55252      .   S
    Zr48   O50       2.18505      .   S
    N22    O50       3.25448  1_455   S
    Zr48   O51       2.18610      .   S
    N17    O51       3.25538  1_455   S
    Zr48   O52       2.51564      .   S
    N1     O52       3.55141      .   S
    Zr53   O54       2.51418      .   S
    N26    O54       3.55064  1_455   S
    Zr53   O55       2.51643      .   S
    N15    O55       3.55238      .   S
    Zr53   O56       2.18566      .   S
    N12    O56       3.25430      .   S
    Zr53   O57       2.18637      .   S
    N0     O57       3.25560  1_565   S
