# CIF file generated by openbabel 2.4.90, see http://openbabel.sf.net
data_I
_chemical_name_common ''
_cell_length_a 11.671
_cell_length_b 12.279
_cell_length_c 14.179
_cell_angle_alpha 90.002
_cell_angle_beta 127.997
_cell_angle_gamma 89.983
_space_group_name_H-M_alt 'P 1'
_space_group_name_Hall 'P 1'
loop_
    _symmetry_equiv_pos_as_xyz
    x,y,z
loop_
    _atom_site_label
    _atom_site_type_symbol
    _atom_site_fract_x
    _atom_site_fract_y
    _atom_site_fract_z
    _atom_site_occupancy
    Zr0     Zr   0.99999   0.99995   0.30000   1.000
    Zr1     Zr   0.49997   0.49994   0.70000   1.000
    Zr2     Zr   0.03726   0.99357   0.38480   1.000
    Zr3     Zr   0.46265   0.49363   0.61522   1.000
    O4      O    0.01862   0.99676   0.34240   1.000
    O5      O    0.48131   0.49679   0.65761   1.000
    N6      N    0.02766   0.99892   0.26686   1.000
    O7      O    0.04859   0.98980   0.27870   1.000
    O8      O    0.99250   0.00867   0.27756   1.000
    N9      N    0.97949   0.00063   0.65751   1.000
    N10     N    0.49997   0.99995   0.00003   1.000
    N11     N    0.52046   0.50104   0.34191   1.000
    N12     N    0.99643   0.49995   0.00002   1.000
    N13     N    0.47223   0.49898   0.73317   1.000
    O14     O    0.45132   0.48985   0.72133   1.000
    O15     O    0.50739   0.50871   0.72246   1.000
loop_
    _geom_bond_atom_site_label_1
    _geom_bond_atom_site_label_2
    _geom_bond_distance
    _geom_bond_site_symmetry_2
    _ccdc_geom_bond_type
    Zr2    O4        0.49926      .   S
    Zr0    O4        0.49926  1_655   S
    Zr3    O5        0.49903      .   S
    Zr1    O5        0.49903      .   S
    N6     O7        0.22341      .   S
    Zr0    O7        0.79971  1_655   S
    N6     O8        0.53142  1_465   S
    Zr0    O8        0.29340  1_565   S
    N13    O14       0.22335      .   S
    Zr1    O14       0.80036      .   S
    N13    O15       0.53156      .   S
    Zr1    O15       0.29413      .   S
