# CIF file generated by openbabel 2.4.90, see http://openbabel.sf.net
data_I
_chemical_name_common ''
_cell_length_a 11.671
_cell_length_b 12.279
_cell_length_c 14.179
_cell_angle_alpha 90.002
_cell_angle_beta 127.997
_cell_angle_gamma 89.983
_space_group_name_H-M_alt 'P 1'
_space_group_name_Hall 'P 1'
loop_
    _symmetry_equiv_pos_as_xyz
    x,y,z
loop_
    _atom_site_label
    _atom_site_type_symbol
    _atom_site_fract_x
    _atom_site_fract_y
    _atom_site_fract_z
    _atom_site_occupancy
    N0      N    0.02766   0.99892   0.26686   1.000
    N1      N    0.97949   0.00063   0.65751   1.000
    N2      N    0.49997   0.99995   0.00003   1.000
    N3      N    0.52046   0.50104   0.34191   1.000
    N4      N    0.99643   0.49995   0.00002   1.000
    N5      N    0.47223   0.49898   0.73317   1.000
    Zr6     Zr   0.01862   0.99676   0.34240   1.000
    O7      O    0.00556   0.00271   0.30998   1.000
    O8      O    0.03361   0.99328   0.31055   1.000
    Zr9     Zr   0.48131   0.49679   0.65761   1.000
    O10     O    0.49435   0.50275   0.69003   1.000
    O11     O    0.46631   0.49332   0.68947   1.000
loop_
    _geom_bond_atom_site_label_1
    _geom_bond_atom_site_label_2
    _geom_bond_distance
    _geom_bond_site_symmetry_2
    _ccdc_geom_bond_type
    Zr6    O7        0.39191  1_565   S
    N0     O7        0.79791  1_565   S
    Zr6    O8        0.57760      .   S
    N0     O8        0.58342      .   S
    Zr9    O10       0.39208      .   S
    N5     O10       0.79832      .   S
    Zr9    O11       0.57777      .   S
    N5     O11       0.58385      .   S
