# CIF file generated by openbabel 2.4.90, see http://openbabel.sf.net
data_I
_chemical_name_common ''
_cell_length_a 23.83
_cell_length_b 23.831
_cell_length_c 15.27
_cell_angle_alpha 109.83
_cell_angle_beta 109.896
_cell_angle_gamma 97.193
_space_group_name_H-M_alt 'P 1'
_space_group_name_Hall 'P 1'
loop_
    _symmetry_equiv_pos_as_xyz
    x,y,z
loop_
    _atom_site_label
    _atom_site_type_symbol
    _atom_site_fract_x
    _atom_site_fract_y
    _atom_site_fract_z
    _atom_site_occupancy
    H0      H    0.05886   0.01277   0.01630   1.000
    H1      H    0.05880   0.51280   0.01647   1.000
    H2      H    0.55882   0.01281   0.01647   1.000
    H3      H    0.55883   0.51280   0.01639   1.000
    H4      H    0.09424   0.20767   0.08040   1.000
    H5      H    0.09418   0.70769   0.08047   1.000
    H6      H    0.59437   0.20771   0.08050   1.000
    H7      H    0.59449   0.70773   0.08062   1.000
    H8      H    0.14653   0.14017   0.31892   1.000
    H9      H    0.14652   0.64021   0.31901   1.000
    H10     H    0.64643   0.14020   0.31904   1.000
    H11     H    0.64641   0.64010   0.31902   1.000
    H12     H    0.44956   0.26521   0.07818   1.000
    H13     H    0.44953   0.76509   0.07818   1.000
    H14     H    0.94953   0.26523   0.07813   1.000
    H15     H    0.94946   0.76507   0.07806   1.000
    H16     H    0.44694   0.10068   0.13718   1.000
    H17     H    0.44695   0.60059   0.13730   1.000
    H18     H    0.94672   0.10065   0.13702   1.000
    H19     H    0.94666   0.60050   0.13699   1.000
    H20     H    0.02142   0.28582   0.37949   1.000
    H21     H    0.02140   0.78568   0.37943   1.000
    H22     H    0.52126   0.28587   0.37959   1.000
    H23     H    0.52137   0.78581   0.37962   1.000
    H24     H    0.48713   0.44126   0.48363   1.000
    H25     H    0.48715   0.94122   0.48360   1.000
    H26     H    0.98714   0.44124   0.48346   1.000
    H27     H    0.98717   0.94115   0.48357   1.000
    H28     H    0.29220   0.40585   0.41980   1.000
    H29     H    0.29221   0.90580   0.41969   1.000
    H30     H    0.79223   0.40570   0.41968   1.000
    H31     H    0.79224   0.90582   0.41977   1.000
    H32     H    0.35946   0.35342   0.18116   1.000
    H33     H    0.35952   0.85338   0.18113   1.000
    H34     H    0.85944   0.35336   0.18100   1.000
    H35     H    0.85946   0.85327   0.18110   1.000
    H36     H    0.23486   0.05039   0.42190   1.000
    H37     H    0.23494   0.55049   0.42192   1.000
    H38     H    0.73479   0.05035   0.42180   1.000
    H39     H    0.73479   0.55025   0.42177   1.000
    H40     H    0.39946   0.05340   0.36314   1.000
    H41     H    0.39947   0.55328   0.36299   1.000
    H42     H    0.89938   0.05338   0.36302   1.000
    H43     H    0.89935   0.55320   0.36291   1.000
    H44     H    0.21413   0.47842   0.12054   1.000
    H45     H    0.21416   0.97837   0.12058   1.000
    H46     H    0.71403   0.47829   0.12042   1.000
    H47     H    0.71407   0.97830   0.12047   1.000
    H48     H    0.44113   0.48718   0.98363   1.000
    H49     H    0.44114   0.98717   0.98354   1.000
    H50     H    0.94117   0.48719   0.98354   1.000
    H51     H    0.94109   0.98721   0.98364   1.000
    H52     H    0.40546   0.29224   0.91939   1.000
    H53     H    0.40558   0.79227   0.91951   1.000
    H54     H    0.90578   0.29229   0.91950   1.000
    H55     H    0.90572   0.79231   0.91961   1.000
    H56     H    0.35355   0.35988   0.68100   1.000
    H57     H    0.35353   0.85978   0.68097   1.000
    H58     H    0.85344   0.35977   0.68100   1.000
    H59     H    0.85343   0.85981   0.68109   1.000
    H60     H    0.05050   0.23491   0.92196   1.000
    H61     H    0.05043   0.73474   0.92188   1.000
    H62     H    0.55043   0.23489   0.92183   1.000
    H63     H    0.55039   0.73476   0.92183   1.000
    H64     H    0.05330   0.39948   0.86302   1.000
    H65     H    0.05324   0.89933   0.86300   1.000
    H66     H    0.55301   0.39939   0.86271   1.000
    H67     H    0.55302   0.89930   0.86283   1.000
    H68     H    0.47859   0.21416   0.62039   1.000
    H69     H    0.47870   0.71411   0.62042   1.000
    H70     H    0.97856   0.21430   0.62058   1.000
    H71     H    0.97854   0.71416   0.62052   1.000
    C72     C    0.90911   0.96181   0.57894   1.000
    C73     C    0.25755   0.04100   0.36961   1.000
    C74     C    0.25760   0.54105   0.36959   1.000
    C75     C    0.75746   0.04096   0.36950   1.000
    H76     H    0.01279   0.05882   0.51644   1.000
    H77     H    0.01282   0.55874   0.51655   1.000
    H78     H    0.51281   0.05876   0.51637   1.000
    H79     H    0.51283   0.55871   0.51639   1.000
    H80     H    0.20771   0.09416   0.58024   1.000
    H81     H    0.20774   0.59428   0.58033   1.000
    H82     H    0.70775   0.09418   0.58032   1.000
    H83     H    0.70775   0.59412   0.58022   1.000
    H84     H    0.14049   0.14671   0.81889   1.000
    H85     H    0.14052   0.64662   0.81901   1.000
    H86     H    0.64043   0.14659   0.81888   1.000
    H87     H    0.64050   0.64656   0.81885   1.000
    H88     H    0.26517   0.44972   0.57823   1.000
    H89     H    0.26517   0.94963   0.57820   1.000
    H90     H    0.76503   0.44949   0.57809   1.000
    H91     H    0.76510   0.94960   0.57811   1.000
    H92     H    0.10061   0.44678   0.63710   1.000
    H93     H    0.10058   0.94660   0.63700   1.000
    H94     H    0.60049   0.44669   0.63700   1.000
    H95     H    0.60050   0.94659   0.63687   1.000
    H96     H    0.28589   0.02167   0.87953   1.000
    H97     H    0.28593   0.52168   0.87959   1.000
    H98     H    0.78580   0.02161   0.87943   1.000
    H99     H    0.78583   0.52156   0.87947   1.000
    C100    C    0.04261   0.34926   0.83634   1.000
    C101    C    0.04255   0.84911   0.83631   1.000
    C102    C    0.54239   0.34918   0.83607   1.000
    C103    C    0.54241   0.84908   0.83617   1.000
    C104    C    0.01485   0.31020   0.73278   1.000
    C105    C    0.07748   0.06135   0.06952   1.000
    C106    C    0.07741   0.56138   0.06961   1.000
    C107    C    0.57746   0.06139   0.06960   1.000
    C108    C    0.57747   0.56137   0.06958   1.000
    C109    C    0.07283   0.10825   0.03414   1.000
    C110    C    0.07276   0.60828   0.03424   1.000
    C111    C    0.57290   0.10828   0.03424   1.000
    C112    C    0.57299   0.60831   0.03427   1.000
    C113    C    0.09714   0.17001   0.10549   1.000
    C114    C    0.09708   0.67004   0.10558   1.000
    C115    C    0.59722   0.17004   0.10560   1.000
    C116    C    0.59730   0.67005   0.10568   1.000
    C117    C    0.12332   0.18172   0.20889   1.000
    C118    C    0.12329   0.68176   0.20898   1.000
    C119    C    0.62333   0.18175   0.20900   1.000
    C120    C    0.62336   0.68171   0.20907   1.000
    C121    C    0.12667   0.13262   0.23881   1.000
    C122    C    0.12663   0.63266   0.23800   1.000
    C123    C    0.62660   0.13266   0.23893   1.000
    C124    C    0.62659   0.63259   0.23892   1.000
    C125    C    0.03832   0.09094   0.92112   1.000
    C126    C    0.03826   0.59100   0.92120   1.000
    C127    C    0.53850   0.09098   0.92120   1.000
    C128    C    0.53867   0.59109   0.92125   1.000
    C129    C    0.45898   0.24254   0.13054   1.000
    C130    C    0.45897   0.74242   0.13056   1.000
    C131    C    0.95893   0.24254   0.13045   1.000
    C132    C    0.95887   0.74238   0.13030   1.000
    C133    C    0.44415   0.17792   0.09355   1.000
    C134    C    0.44412   0.67781   0.09361   1.000
    C135    C    0.94398   0.17792   0.09343   1.000
    C136    C    0.94390   0.67775   0.09338   1.000
    C137    C    0.45755   0.15089   0.16380   1.000
    C138    C    0.45756   0.65080   0.16394   1.000
    C139    C    0.95741   0.15087   0.16371   1.000
    C140    C    0.95735   0.65072   0.16367   1.000
    C141    C    0.48519   0.18996   0.26740   1.000
    C142    C    0.48524   0.68989   0.26749   1.000
    C143    C    0.98517   0.18993   0.26727   1.000
    C144    C    0.98511   0.68978   0.26723   1.000
    C145    C    0.99889   0.25412   0.29903   1.000
    C146    C    0.99885   0.75397   0.29897   1.000
    C147    C    0.49880   0.25416   0.29913   1.000
    C148    C    0.49887   0.75408   0.29910   1.000
    C149    C    0.41669   0.13932   0.97900   1.000
    C150    C    0.41663   0.63916   0.97957   1.000
    C151    C    0.91636   0.13931   0.97936   1.000
    C152    C    0.91628   0.63912   0.97931   1.000
    C153    C    0.43851   0.42263   0.43050   1.000
    C154    C    0.43853   0.92258   0.43051   1.000
    C155    C    0.93852   0.42257   0.43036   1.000
    C156    C    0.93854   0.92251   0.43040   1.000
    C157    C    0.39165   0.42728   0.46595   1.000
    C158    C    0.39166   0.92725   0.46589   1.000
    C159    C    0.89167   0.42720   0.46581   1.000
    C160    C    0.89169   0.92723   0.46592   1.000
    C161    C    0.32983   0.40293   0.39465   1.000
    C162    C    0.32985   0.90289   0.39457   1.000
    C163    C    0.82985   0.40282   0.39452   1.000
    C164    C    0.82987   0.90288   0.39463   1.000
    C165    C    0.31802   0.37669   0.29125   1.000
    C166    C    0.31806   0.87664   0.29117   1.000
    C167    C    0.81803   0.37659   0.29111   1.000
    C168    C    0.81805   0.87661   0.29122   1.000
    C169    C    0.36707   0.37333   0.26128   1.000
    C170    C    0.36713   0.87329   0.26124   1.000
    C171    C    0.86708   0.37327   0.26112   1.000
    C172    C    0.86710   0.87320   0.26124   1.000
    C173    C    0.40905   0.46182   0.57890   1.000
    C174    C    0.40901   0.96178   0.57888   1.000
    C175    C    0.90909   0.46174   0.57884   1.000
    O176    O    0.40463   0.58055   0.94985   1.000
    O177    O    0.90424   0.08069   0.94960   1.000
    O178    O    0.90416   0.58050   0.94956   1.000
    O179    O    0.46247   0.99924   0.63060   1.000
    O180    O    0.46259   0.49908   0.63072   1.000
    O181    O    0.96255   0.99933   0.63050   1.000
    O182    O    0.96263   0.49905   0.63054   1.000
    O183    O    0.36797   0.45087   0.61151   1.000
    C184    C    0.75745   0.54085   0.36945   1.000
    C185    C    0.32220   0.05605   0.40666   1.000
    C186    C    0.32224   0.55604   0.40659   1.000
    C187    C    0.82211   0.05603   0.40650   1.000
    C188    C    0.82210   0.55588   0.40647   1.000
    C189    C    0.34922   0.04263   0.33641   1.000
    C190    C    0.34923   0.54257   0.33630   1.000
    C191    C    0.84913   0.04260   0.33630   1.000
    C192    C    0.84911   0.54246   0.33621   1.000
    C193    C    0.31012   0.01479   0.23284   1.000
    C194    C    0.31011   0.51478   0.23274   1.000
    C195    C    0.81003   0.01474   0.23273   1.000
    C196    C    0.81000   0.51466   0.23265   1.000
    C197    C    0.24589   0.50101   0.20100   1.000
    C198    C    0.24590   0.00000   0.20104   1.000
    C199    C    0.74578   0.50087   0.20088   1.000
    C200    C    0.74580   0.00000   0.20094   1.000
    C201    C    0.36090   0.08376   0.52075   1.000
    C202    C    0.36098   0.58370   0.52067   1.000
    C203    C    0.86078   0.08375   0.52060   1.000
    C204    C    0.86078   0.58356   0.52050   1.000
    C205    C    0.42249   0.43861   0.93043   1.000
    C206    C    0.42250   0.93859   0.93039   1.000
    C207    C    0.92256   0.43860   0.93040   1.000
    C208    C    0.92248   0.93862   0.93049   1.000
    C209    C    0.42697   0.39167   0.96574   1.000
    C210    C    0.42706   0.89169   0.96577   1.000
    C211    C    0.92720   0.39171   0.96577   1.000
    C212    C    0.92713   0.89173   0.96587   1.000
    C213    C    0.40266   0.32993   0.89434   1.000
    C214    C    0.40274   0.82993   0.89441   1.000
    C215    C    0.90288   0.32994   0.89443   1.000
    C216    C    0.90282   0.82997   0.89452   1.000
    C217    C    0.37660   0.31826   0.79095   1.000
    C218    C    0.37663   0.81822   0.79101   1.000
    C219    C    0.87667   0.31822   0.79103   1.000
    C220    C    0.87664   0.81825   0.79111   1.000
    C221    C    0.37336   0.36739   0.76110   1.000
    C222    C    0.37336   0.86732   0.76108   1.000
    C223    C    0.87333   0.36732   0.76111   1.000
    C224    C    0.87329   0.86735   0.76120   1.000
    C225    C    0.46129   0.40889   0.07876   1.000
    C226    C    0.46146   0.90900   0.07881   1.000
    C227    C    0.96171   0.40899   0.07877   1.000
    C228    C    0.96163   0.90903   0.07889   1.000
    C229    C    0.04110   0.25760   0.86963   1.000
    C230    C    0.04104   0.75744   0.86956   1.000
    C231    C    0.54099   0.25755   0.86946   1.000
    C232    C    0.54097   0.75744   0.86947   1.000
    C233    C    0.05606   0.32223   0.90663   1.000
    C234    C    0.05598   0.82206   0.90658   1.000
    C235    C    0.55584   0.32217   0.90640   1.000
    C236    C    0.55581   0.82205   0.90646   1.000
    C237    C    0.01480   0.81006   0.73274   1.000
    C238    C    0.51472   0.31009   0.73252   1.000
    C239    C    0.51477   0.81001   0.73261   1.000
    C240    C    0.50109   0.24590   0.70084   1.000
    C241    C    0.50116   0.74582   0.70088   1.000
    C242    C    0.00000   0.24601   0.70104   1.000
    C243    C    0.00000   0.74586   0.70098   1.000
    C244    C    0.08368   0.36086   0.02070   1.000
    C245    C    0.08360   0.86067   0.02065   1.000
    C246    C    0.58333   0.36081   0.02044   1.000
    C247    C    0.58327   0.86066   0.02052   1.000
    C248    C    0.06142   0.07747   0.56953   1.000
    C249    C    0.06144   0.57741   0.56965   1.000
    C250    C    0.56143   0.07740   0.56950   1.000
    C251    C    0.56145   0.57735   0.56948   1.000
    C252    C    0.10826   0.07275   0.53409   1.000
    C253    C    0.10829   0.57278   0.53420   1.000
    C254    C    0.60830   0.07273   0.53412   1.000
    C255    C    0.60831   0.57269   0.53406   1.000
    C256    C    0.17009   0.09710   0.60538   1.000
    C257    C    0.17011   0.59716   0.60540   1.000
    C258    C    0.67011   0.09710   0.60545   1.000
    C259    C    0.67013   0.59704   0.60536   1.000
    C260    C    0.18190   0.12337   0.70879   1.000
    C261    C    0.18193   0.62339   0.70890   1.000
    C262    C    0.68190   0.12334   0.70884   1.000
    C263    C    0.68194   0.62329   0.70877   1.000
    C264    C    0.13285   0.12677   0.73877   1.000
    C265    C    0.13288   0.62671   0.73889   1.000
    C266    C    0.63283   0.12668   0.73877   1.000
    C267    C    0.63288   0.62665   0.73870   1.000
    C268    C    0.09084   0.03817   0.42107   1.000
    C269    C    0.09087   0.53824   0.42110   1.000
    C270    C    0.59096   0.03820   0.42113   1.000
    C271    C    0.59091   0.53815   0.42105   1.000
    C272    C    0.24250   0.45912   0.63056   1.000
    C273    C    0.24250   0.95902   0.63051   1.000
    C274    C    0.74237   0.45893   0.63042   1.000
    C275    C    0.74241   0.95899   0.63041   1.000
    C276    C    0.17786   0.44409   0.59354   1.000
    C277    C    0.17784   0.94395   0.59347   1.000
    C278    C    0.67772   0.44394   0.59342   1.000
    C279    C    0.67776   0.94393   0.59335   1.000
    C280    C    0.15085   0.45752   0.66380   1.000
    C281    C    0.15082   0.95738   0.66371   1.000
    C282    C    0.65073   0.45740   0.66371   1.000
    C283    C    0.65074   0.95735   0.66360   1.000
    C284    C    0.18996   0.48532   0.76736   1.000
    C285    C    0.18993   0.98524   0.76728   1.000
    C286    C    0.68985   0.48520   0.76720   1.000
    C287    C    0.68984   0.98519   0.76717   1.000
    C288    C    0.25416   0.99906   0.79907   1.000
    C289    C    0.25418   0.49911   0.79913   1.000
    C290    C    0.75406   0.99900   0.79897   1.000
    C291    C    0.75407   0.49896   0.79901   1.000
    C292    C    0.13917   0.41641   0.47944   1.000
    C293    C    0.13917   0.91623   0.47937   1.000
    C294    C    0.63898   0.41627   0.47934   1.000
    C295    C    0.63906   0.91622   0.47926   1.000
    Br296   Br   0.15318   0.26479   0.31071   1.000
    Br297   Br   0.15319   0.76483   0.31077   1.000
    Br298   Br   0.65317   0.26482   0.31080   1.000
    Br299   Br   0.65322   0.76477   0.31091   1.000
    Br300   Br   0.00671   0.15618   0.36774   1.000
    Br301   Br   0.00666   0.65603   0.36769   1.000
    Br302   Br   0.50668   0.15625   0.36791   1.000
    Br303   Br   0.50677   0.65619   0.36801   1.000
    Br304   Br   0.23487   0.34676   0.18949   1.000
    Br305   Br   0.23491   0.84671   0.18939   1.000
    Br306   Br   0.73487   0.34663   0.18935   1.000
    Br307   Br   0.73489   0.84668   0.18946   1.000
    Br308   Br   0.34381   0.49330   0.13229   1.000
    Br309   Br   0.34386   0.99331   0.13246   1.000
    Br310   Br   0.84370   0.49320   0.13220   1.000
    Br311   Br   0.84375   0.99324   0.13232   1.000
    Br312   Br   0.34673   0.23521   0.68910   1.000
    Br313   Br   0.34679   0.73516   0.68921   1.000
    Br314   Br   0.84677   0.23515   0.68924   1.000
    Br315   Br   0.84678   0.73519   0.68930   1.000
    Br316   Br   0.49319   0.34378   0.63199   1.000
    Br317   Br   0.49328   0.84373   0.63210   1.000
    Br318   Br   0.99330   0.34395   0.63232   1.000
    Br319   Br   0.99325   0.84380   0.63220   1.000
    Br320   Br   0.26506   0.15330   0.81055   1.000
    Br321   Br   0.26509   0.65335   0.81066   1.000
    Br322   Br   0.76505   0.15327   0.81060   1.000
    Br323   Br   0.76509   0.65322   0.81053   1.000
    Br324   Br   0.15621   0.00674   0.86769   1.000
    Br325   Br   0.15626   0.50678   0.86781   1.000
    Br326   Br   0.65610   0.00667   0.86755   1.000
    Br327   Br   0.65615   0.50667   0.86771   1.000
    N328    N    0.10455   0.07332   0.16929   1.000
    N329    N    0.10450   0.57335   0.16930   1.000
    N330    N    0.60446   0.07335   0.16941   1.000
    N331    N    0.60444   0.57329   0.16935   1.000
    N332    N    0.48546   0.27978   0.23087   1.000
    N333    N    0.48549   0.77968   0.23088   1.000
    N334    N    0.98553   0.27977   0.23079   1.000
    N335    N    0.98547   0.77961   0.23073   1.000
    N336    N    0.42643   0.39551   0.33076   1.000
    N337    N    0.42649   0.89546   0.33074   1.000
    N338    N    0.92645   0.39547   0.33058   1.000
    N339    N    0.92647   0.89536   0.33070   1.000
    N340    N    0.22028   0.01431   0.26926   1.000
    N341    N    0.22030   0.51438   0.26925   1.000
    N342    N    0.72019   0.01426   0.26915   1.000
    N343    N    0.72016   0.51418   0.26910   1.000
    N344    N    0.39552   0.42669   0.83066   1.000
    N345    N    0.39550   0.92663   0.83060   1.000
    N346    N    0.89546   0.42663   0.83062   1.000
    N347    N    0.89541   0.92666   0.83072   1.000
    N348    N    0.01449   0.22037   0.76929   1.000
    N349    N    0.01444   0.72022   0.76921   1.000
    N350    N    0.51446   0.22030   0.76913   1.000
    N351    N    0.51449   0.72020   0.76914   1.000
    N352    N    0.07349   0.10462   0.66931   1.000
    N353    N    0.07351   0.60451   0.66943   1.000
    N354    N    0.57347   0.10452   0.66927   1.000
    N355    N    0.57352   0.60447   0.66926   1.000
    N356    N    0.27979   0.48579   0.73090   1.000
    N357    N    0.27977   0.98572   0.73086   1.000
    N358    N    0.77966   0.48561   0.73070   1.000
    N359    N    0.77968   0.98567   0.73076   1.000
    O360    O    0.50107   0.03753   0.86936   1.000
    O361    O    0.50103   0.53775   0.86940   1.000
    O362    O    0.00000   0.03751   0.86930   1.000
    O363    O    0.00000   0.53756   0.86943   1.000
    O364    O    0.04951   0.13195   0.88856   1.000
    O365    O    0.04942   0.63205   0.88873   1.000
    O366    O    0.54974   0.13201   0.88870   1.000
    O367    O    0.55017   0.63205   0.88876   1.000
    O368    O    0.40926   0.16960   0.92389   1.000
    O369    O    0.40914   0.66941   0.92392   1.000
    O370    O    0.90888   0.16958   0.92374   1.000
    O371    O    0.90880   0.66937   0.92367   1.000
    O372    O    0.40465   0.08070   0.94975   1.000
    O373    O    0.36797   0.95064   0.61140   1.000
    O374    O    0.86805   0.45074   0.61142   1.000
    O375    O    0.86817   0.95063   0.61161   1.000
    O376    O    0.33067   0.09127   0.57639   1.000
    O377    O    0.33081   0.59158   0.57640   1.000
    O378    O    0.83052   0.09122   0.57623   1.000
    O379    O    0.83056   0.59132   0.57621   1.000
    O380    O    0.41954   0.09591   0.55051   1.000
    O381    O    0.41960   0.59544   0.55030   1.000
    O382    O    0.91943   0.09594   0.55044   1.000
    O383    O    0.91941   0.59542   0.55020   1.000
    O384    O    0.99918   0.46243   0.13058   1.000
    O385    O    0.99912   0.96247   0.13063   1.000
    O386    O    0.49893   0.46223   0.13061   1.000
    O387    O    0.49889   0.96244   0.13065   1.000
    O388    O    0.44979   0.36793   0.11125   1.000
    O389    O    0.45021   0.86796   0.11131   1.000
    O390    O    0.95055   0.36794   0.11128   1.000
    O391    O    0.95045   0.86802   0.11145   1.000
    O392    O    0.09117   0.33061   0.07634   1.000
    O393    O    0.09108   0.83040   0.07627   1.000
    O394    O    0.59081   0.33056   0.07609   1.000
    O395    O    0.59069   0.83038   0.07612   1.000
    O396    O    0.09580   0.41948   0.05045   1.000
    O397    O    0.09571   0.91929   0.05041   1.000
    O398    O    0.59533   0.41943   0.05016   1.000
    O399    O    0.59531   0.91927   0.05027   1.000
    O400    O    0.03733   0.50093   0.36947   1.000
    O401    O    0.03741   0.00000   0.36951   1.000
    O402    O    0.53736   0.50089   0.36930   1.000
    O403    O    0.53749   0.00000   0.36941   1.000
    O404    O    0.13178   0.04935   0.38839   1.000
    O405    O    0.13191   0.54924   0.38850   1.000
    O406    O    0.63199   0.04934   0.38861   1.000
    O407    O    0.63199   0.54909   0.38850   1.000
    O408    O    0.16939   0.40865   0.42300   1.000
    O409    O    0.16943   0.90875   0.42378   1.000
    O410    O    0.66915   0.40840   0.42360   1.000
    O411    O    0.66929   0.90871   0.42362   1.000
    O412    O    0.08054   0.40456   0.44973   1.000
    O413    O    0.08053   0.90404   0.44957   1.000
    O414    O    0.58037   0.40454   0.44971   1.000
    O415    O    0.58042   0.90407   0.44950   1.000
loop_
    _geom_bond_atom_site_label_1
    _geom_bond_atom_site_label_2
    _geom_bond_distance
    _geom_bond_site_symmetry_2
    _ccdc_geom_bond_type
    H0     C105      1.08871      .   S
    H3     C108      1.08845      .   S
    H2     C107      1.08836      .   S
    H1     C106      1.08842      .   S
    C246   O398      1.27294      .   S
    C246   O394      1.27208      .   S
    C246   C235      1.51463  1_554   S
    C247   O399      1.27291      .   S
    C247   O395      1.27214      .   S
    C247   C236      1.51476  1_554   S
    C245   O397      1.27293      .   S
    C245   O393      1.27215      .   S
    C245   C234      1.51476  1_554   S
    C244   O396      1.27291      .   S
    C244   O392      1.27201      .   S
    C244   C233      1.51486  1_554   S
    C109   C105      1.39751      .   S
    C109   C113      1.39926      .   S
    C109   C125      1.51359  1_554   S
    C111   C107      1.39724      .   S
    C111   C115      1.39926      .   S
    C111   C127      1.51356  1_554   S
    C110   C106      1.39748      .   S
    C110   C114      1.39924      .   S
    C110   C126      1.51396  1_554   S
    C112   C108      1.39755      .   S
    C112   C116      1.39921      .   S
    C112   C128      1.51345  1_554   S
    C105   N328      1.34490      .   S
    C108   N331      1.34499      .   S
    C107   N330      1.34534      .   S
    C106   N329      1.34380      .   S
    H15    C132      1.08643      .   S
    H14    C131      1.08750      .   S
    H12    C129      1.08758      .   S
    H13    C130      1.08764      .   S
    C225   O388      1.27608      .   S
    C225   O386      1.26302      .   S
    C225   C209      1.51345  1_554   S
    C227   O390      1.27605      .   S
    C227   O384      1.26329      .   S
    C227   C211      1.51344  1_554   S
    C226   O389      1.27615      .   S
    C226   O387      1.26309      .   S
    C226   C210      1.51357  1_554   S
    C228   O391      1.27597      .   S
    C228   O385      1.26330      .   S
    C228   C212      1.51358  1_554   S
    H4     C113      1.08987      .   S
    H5     C114      1.08992      .   S
    H6     C115      1.08992      .   S
    H7     C116      1.08999      .   S
    C136   C132      1.39762      .   S
    C136   C140      1.39874      .   S
    C136   C152      1.51486  1_554   S
    C135   C131      1.39750      .   S
    C135   C139      1.39882      .   S
    C135   C151      1.51477  1_554   S
    C133   C129      1.39747      .   S
    C133   C137      1.39814      .   S
    C133   C149      1.52073  1_554   S
    C134   C130      1.39752      .   S
    C134   C138      1.39874      .   S
    C134   C150      1.51463  1_554   S
    C113   C117      1.39538      .   S
    C114   C118      1.39538      .   S
    C115   C119      1.39532      .   S
    C116   C120      1.39540      .   S
    H46    C199      1.09009      .   S
    H47    C200      1.08983  1_565   S
    H44    C197      1.09017      .   S
    H45    C198      1.08972  1_565   S
    C132   N335      1.34730      .   S
    C131   N334      1.34624      .   S
    C129   N332      1.34620      .   S
    C130   N333      1.34617      .   S
    Br310  C196      1.91532      .   S
    Br308  C194      1.91519      .   S
    Br311  C195      1.91523  1_565   S
    Br309  C193      1.91510  1_565   S
    H19    C140      1.08874      .   S
    H18    C139      1.08873      .   S
    H16    C137      1.08880      .   S
    H17    C138      1.08873      .   S
    C140   C144      1.39278      .   S
    C139   C143      1.39276      .   S
    C137   C141      1.39329      .   S
    C138   C142      1.39282      .   S
    N328   C121      1.34791      .   S
    N329   C122      1.34424      .   S
    N331   C124      1.34798      .   S
    N330   C123      1.34791      .   S
    H34    C171      1.08996      .   S
    H35    C172      1.09025      .   S
    H33    C170      1.09001      .   S
    H32    C169      1.09009      .   S
    Br306  C167      1.91009      .   S
    Br305  C166      1.90998      .   S
    Br307  C168      1.91010      .   S
    Br304  C165      1.90997      .   S
    C199   C196      1.39499      .   S
    C199   N343      1.34733      .   S
    C200   C195      1.39476      .   S
    C200   N342      1.34820      .   S
    C197   C194      1.39498      .   S
    C197   N341      1.34743      .   S
    C198   C193      1.39476      .   S
    C198   N340      1.34843      .   S
    C117   C121      1.39476      .   S
    C117   Br296     1.91006      .   S
    C118   C122      1.38665      .   S
    C118   Br297     1.91000      .   S
    C119   C123      1.39477      .   S
    C119   Br298     1.90998      .   S
    C120   C124      1.39471      .   S
    C120   Br299     1.91001      .   S
    N335   C146      1.34734      .   S
    N334   C145      1.34747      .   S
    N332   C147      1.34739      .   S
    N333   C148      1.34649      .   S
    C196   C192      1.39276      .   S
    C195   C191      1.39282      .   S
    C194   C190      1.39279      .   S
    C193   C189      1.39278      .   S
    C122   H9        1.10261      .   S
    C121   H8        1.09002      .   S
    C124   H11       1.09003      .   S
    C123   H10       1.09001      .   S
    C171   C167      1.39472      .   S
    C171   N338      1.34789      .   S
    C170   C166      1.39474      .   S
    C170   N337      1.34790      .   S
    C172   C168      1.39474      .   S
    C172   N339      1.34790      .   S
    C169   C165      1.39470      .   S
    C169   N336      1.34786      .   S
    C144   C146      1.39497      .   S
    C144   Br301     1.91519  1_655   S
    C143   C145      1.39496      .   S
    C143   Br300     1.91525  1_655   S
    C141   C147      1.39498      .   S
    C141   Br302     1.91528      .   S
    C142   C148      1.39510      .   S
    C142   Br303     1.91512      .   S
    N343   C184      1.34635      .   S
    N342   C75       1.34629      .   S
    N341   C74       1.34628      .   S
    N340   C73       1.34626      .   S
    C167   C163      1.39538      .   S
    C166   C162      1.39540      .   S
    C168   C164      1.39541      .   S
    C165   C161      1.39529      .   S
    C146   H21       1.09011  1_655   S
    C145   H20       1.09005  1_655   S
    C148   H23       1.09090      .   S
    C147   H22       1.09009      .   S
    N338   C155      1.34497      .   S
    N339   C156      1.34395      .   S
    N337   C154      1.34499      .   S
    N336   C153      1.34443      .   S
    C192   H43       1.08872      .   S
    C192   C188      1.39872      .   S
    C191   H42       1.08873      .   S
    C191   C187      1.39813      .   S
    C190   H41       1.08871      .   S
    C190   C186      1.39877      .   S
    C189   H40       1.08871      .   S
    C189   C185      1.39876      .   S
    O402   C271      1.26298      .   S
    O403   C270      1.26986      .   S
    C184   C188      1.39748      .   S
    C184   H39       1.08751      .   S
    O400   C269      1.26306      .   S
    C75    C187      1.39752      .   S
    C75    H38       1.08747      .   S
    O401   C268      1.26909      .   S
    C74    C186      1.39749      .   S
    C74    H37       1.08761      .   S
    C73    C185      1.39753      .   S
    C73    H36       1.08751      .   S
    O404   C268      1.27597      .   S
    O405   C269      1.27628      .   S
    O407   C271      1.27613      .   S
    O406   C270      1.27602      .   S
    C163   H30       1.08999      .   S
    C163   C159      1.39929      .   S
    C162   H29       1.08993      .   S
    C162   C158      1.39922      .   S
    C164   H31       1.08994      .   S
    C164   C160      1.39928      .   S
    C161   H28       1.08999      .   S
    C161   C157      1.39927      .   S
    C188   C204      1.51419      .   S
    C187   C203      1.51496      .   S
    C186   C202      1.51501      .   S
    C185   C201      1.51496      .   S
    C271   C255      1.51367      .   S
    C268   C252      1.51381      .   S
    C269   C253      1.51477      .   S
    C270   C254      1.51363      .   S
    O408   C292      1.28190      .   S
    O410   C294      1.27212      .   S
    O411   C295      1.27212      .   S
    O409   C293      1.27217      .   S
    C155   C159      1.39751      .   S
    C155   H26       1.08845      .   S
    C156   C160      1.39827      .   S
    C156   H27       1.08873      .   S
    C153   C157      1.39777      .   S
    C153   H24       1.08857      .   S
    C154   C158      1.39748      .   S
    C154   H25       1.08831      .   S
    O415   C295      1.27289      .   S
    O413   C293      1.27289      .   S
    O414   C294      1.27287      .   S
    O412   C292      1.27295      .   S
    C159   C175      1.51384      .   S
    C158   C174      1.51363      .   S
    C160   C72       1.51382      .   S
    C157   C173      1.51288      .   S
    C295   C279      1.51496      .   S
    C294   C278      1.51501      .   S
    C293   C277      1.51497      .   S
    C292   C276      1.51504      .   S
    H78    C250      1.08846      .   S
    H79    C251      1.08842      .   S
    H76    C248      1.08844      .   S
    H77    C249      1.08845      .   S
    C204   O383      1.27298      .   S
    C204   O379      1.27288      .   S
    C203   O382      1.27286      .   S
    C203   O378      1.27269      .   S
    C202   O381      1.27287      .   S
    C202   O377      1.27201      .   S
    C201   O380      1.27287      .   S
    C201   O376      1.27210      .   S
    C255   C251      1.39746      .   S
    C255   C259      1.39927      .   S
    C252   C248      1.39750      .   S
    C252   C256      1.39930      .   S
    C254   C250      1.39751      .   S
    C254   C258      1.39924      .   S
    C253   C249      1.39749      .   S
    C253   C257      1.39891      .   S
    C251   N355      1.34498      .   S
    C250   N354      1.34499      .   S
    C248   N352      1.34504      .   S
    C249   N353      1.34497      .   S
    H90    C274      1.08761      .   S
    H91    C275      1.08763      .   S
    H89    C273      1.08758      .   S
    H88    C272      1.08764      .   S
    C175   O374      1.27608      .   S
    C175   O182      1.26309      .   S
    C174   O373      1.27600      .   S
    C174   O179      1.26324      .   S
    C173   O183      1.27676      .   S
    C173   O180      1.26301      .   S
    C72    O375      1.27587      .   S
    C72    O181      1.26327      .   S
    H83    C259      1.08990      .   S
    H80    C256      1.08992      .   S
    H82    C258      1.09002      .   S
    H81    C257      1.08918      .   S
    C279   C275      1.39752      .   S
    C279   C283      1.39876      .   S
    C278   C274      1.39749      .   S
    C278   C282      1.39878      .   S
    C277   C273      1.39749      .   S
    C277   C281      1.39863      .   S
    C276   C272      1.39748      .   S
    C276   C280      1.39869      .   S
    C259   C263      1.39542      .   S
    C256   C260      1.39541      .   S
    C257   C261      1.39662      .   S
    C258   C262      1.39527      .   S
    H68    C240      1.09013      .   S
    H69    C241      1.09008      .   S
    H71    C243      1.08977  1_655   S
    H70    C242      1.08984  1_655   S
    C275   N359      1.34626      .   S
    C274   N358      1.34558      .   S
    C273   N357      1.34630      .   S
    C272   N356      1.34624      .   S
    Br316  C238      1.91522      .   S
    Br317  C239      1.91529      .   S
    Br319  C237      1.91622  1_655   S
    Br318  C104      1.91516  1_655   S
    H95    C283      1.08871      .   S
    H93    C281      1.08872      .   S
    H94    C282      1.08871      .   S
    H92    C280      1.08874      .   S
    C283   C287      1.39278      .   S
    C282   C286      1.39199      .   S
    C281   C285      1.39283      .   S
    C280   C284      1.39276      .   S
    N355   C267      1.34770      .   S
    N354   C266      1.34790      .   S
    N352   C264      1.34790      .   S
    N353   C265      1.34789      .   S
    H57    C222      1.09002      .   S
    H58    C223      1.08997      .   S
    H56    C221      1.09004      .   S
    H59    C224      1.09002      .   S
    Br312  C217      1.91006      .   S
    Br313  C218      1.90998      .   S
    Br314  C219      1.91001      .   S
    Br315  C220      1.91001      .   S
    C240   C238      1.39498      .   S
    C240   N350      1.34738      .   S
    C241   C239      1.39500      .   S
    C241   N351      1.34739      .   S
    C243   C237      1.39466      .   S
    C243   N349      1.34837      .   S
    C242   C104      1.39469      .   S
    C242   N348      1.34851      .   S
    C263   C267      1.39433      .   S
    C263   Br323     1.90998      .   S
    C260   C264      1.39474      .   S
    C260   Br320     1.91009      .   S
    C262   C266      1.39473      .   S
    C262   Br322     1.90988      .   S
    C261   C265      1.39473      .   S
    C261   Br321     1.91008      .   S
    N358   C291      1.34821      .   S
    N359   C290      1.34741      .   S
    N357   C288      1.34732      .   S
    N356   C289      1.34742      .   S
    C238   C102      1.39282      .   S
    C239   C103      1.39283      .   S
    C237   C101      1.39287      .   S
    C104   C100      1.39279      .   S
    C267   H87       1.09051      .   S
    C266   H86       1.09001      .   S
    C264   H84       1.08997      .   S
    C265   H85       1.08996      .   S
    C222   C218      1.39477      .   S
    C222   N345      1.34791      .   S
    C221   C217      1.39471      .   S
    C221   N344      1.34793      .   S
    C223   C219      1.39476      .   S
    C223   N346      1.34788      .   S
    C224   C220      1.39467      .   S
    C224   N347      1.34791      .   S
    C287   C290      1.39500      .   S
    C287   Br326     1.91511  1_565   S
    C286   C291      1.39489      .   S
    C286   Br327     1.91597      .   S
    C285   C288      1.39501      .   S
    C285   Br324     1.91518  1_565   S
    C284   C289      1.39501      .   S
    C284   Br325     1.91529      .   S
    N350   C231      1.34628      .   S
    N351   C232      1.34619      .   S
    N349   C230      1.34635      .   S
    N348   C229      1.34627      .   S
    C217   C213      1.39540      .   S
    C218   C214      1.39532      .   S
    C219   C215      1.39537      .   S
    C220   C216      1.39552      .   S
    C290   H98       1.09005  1_565   S
    C291   H99       1.09017      .   S
    C288   H96       1.09006  1_565   S
    C289   H97       1.09009      .   S
    N345   C206      1.34507      .   S
    N346   C207      1.34503      .   S
    N344   C205      1.34498      .   S
    N347   C208      1.34489      .   S
    C102   H66       1.08873      .   S
    C102   C235      1.39872      .   S
    C103   H67       1.08875      .   S
    C103   C236      1.39868      .   S
    C101   H65       1.08873      .   S
    C101   C234      1.39872      .   S
    C100   H64       1.08871      .   S
    C100   C233      1.39872      .   S
    O362   C125      1.27085      .   S
    O360   C127      1.26311      .   S
    O361   C128      1.26302      .   S
    O363   C126      1.27029      .   S
    C231   C235      1.39753      .   S
    C231   H62       1.08749      .   S
    C232   C236      1.39747      .   S
    C232   H63       1.08760      .   S
    C230   C234      1.39748      .   S
    C230   H61       1.08752      .   S
    C229   C233      1.39757      .   S
    C229   H60       1.08756      .   S
    O364   C125      1.27596      .   S
    O366   C127      1.27611      .   S
    O365   C126      1.27562      .   S
    O367   C128      1.27610      .   S
    C213   H52       1.08989      .   S
    C213   C209      1.39918      .   S
    C214   H53       1.08995      .   S
    C214   C210      1.39924      .   S
    C215   H54       1.08955      .   S
    C215   C211      1.39924      .   S
    C216   H55       1.08990      .   S
    C216   C212      1.39925      .   S
    O371   C152      1.27203      .   S
    O370   C151      1.27215      .   S
    O368   C149      1.26602      .   S
    O369   C150      1.27205      .   S
    C206   C210      1.39745      .   S
    C206   H49       1.08844      .   S
    C207   C211      1.39743      .   S
    C207   H50       1.08844      .   S
    C205   C209      1.39754      .   S
    C205   H48       1.08848      .   S
    C208   C212      1.39753      .   S
    C208   H51       1.08845      .   S
    O178   C152      1.27291      .   S
    O177   C151      1.27292      .   S
    O372   C149      1.27364      .   S
    O176   C150      1.27292      .   S
