# CIF file generated by openbabel 2.4.90, see http://openbabel.sf.net
data_I
_chemical_name_common ''
_cell_length_a 23.83
_cell_length_b 23.831
_cell_length_c 15.27
_cell_angle_alpha 109.83
_cell_angle_beta 109.896
_cell_angle_gamma 97.193
_space_group_name_H-M_alt 'P 1'
_space_group_name_Hall 'P 1'
loop_
    _symmetry_equiv_pos_as_xyz
    x,y,z
loop_
    _atom_site_label
    _atom_site_type_symbol
    _atom_site_fract_x
    _atom_site_fract_y
    _atom_site_fract_z
    _atom_site_occupancy
    Cd0     Cd   0.39091   0.51043   0.78217   1.000
    Cd1     Cd   0.89080   0.01035   0.78212   1.000
    Cd2     Cd   0.89074   0.51030   0.78199   1.000
    Cd3     Cd   0.48991   0.10924   0.71805   1.000
    Cd4     Cd   0.49002   0.60912   0.71809   1.000
    Cd5     Cd   0.98982   0.10929   0.71796   1.000
    Cd6     Cd   0.98982   0.60911   0.71797   1.000
    Cd7     Cd   0.10922   0.48968   0.21800   1.000
    Cd8     Cd   0.10916   0.98963   0.21789   1.000
    Cd9     Cd   0.60905   0.48955   0.21784   1.000
    Cd10    Cd   0.60904   0.98965   0.21791   1.000
    Cd11    Cd   0.01014   0.39087   0.28204   1.000
    Cd12    Cd   0.01014   0.89069   0.28205   1.000
    Cd13    Cd   0.50994   0.39085   0.28192   1.000
    Cd14    Cd   0.51005   0.89074   0.28196   1.000
    H15     H    0.40142   0.13137   0.81594   1.000
    H16     H    0.40147   0.63144   0.81601   1.000
    H17     H    0.90123   0.13137   0.81580   1.000
    H18     H    0.90122   0.63134   0.81584   1.000
    Cd19    Cd   0.39092   0.01033   0.78210   1.000
    H20     H    0.36885   0.09892   0.68427   1.000
    H21     H    0.36900   0.59915   0.68435   1.000
    H22     H    0.86874   0.09891   0.68420   1.000
    H23     H    0.86876   0.59897   0.68421   1.000
    H24     H    0.09874   0.36864   0.18417   1.000
    H25     H    0.09873   0.86861   0.18421   1.000
    H26     H    0.59848   0.36853   0.18400   1.000
    H27     H    0.59853   0.86860   0.18400   1.000
    H28     H    0.13120   0.40101   0.31580   1.000
    H29     H    0.13121   0.90107   0.31581   1.000
    H30     H    0.63096   0.40082   0.31560   1.000
    H31     H    0.63111   0.90106   0.31574   1.000
    O32     O    0.40114   0.09906   0.75009   1.000
    O33     O    0.40126   0.59924   0.75013   1.000
    O34     O    0.90105   0.09908   0.75003   1.000
    O35     O    0.90104   0.59911   0.75001   1.000
    O36     O    0.09892   0.40087   0.25000   1.000
    O37     O    0.09891   0.90089   0.24998   1.000
    O38     O    0.59869   0.40074   0.24980   1.000
    O39     O    0.59882   0.90092   0.24992   1.000
loop_
    _geom_bond_atom_site_label_1
    _geom_bond_atom_site_label_2
    _geom_bond_distance
    _geom_bond_site_symmetry_2
    _ccdc_geom_bond_type
    H26    O38       1.03488      .   S
    H27    O39       1.03657      .   S
    H24    O36       1.03577      .   S
    H25    O37       1.03562      .   S
    O38    H30       1.03589      .   S
    O39    H31       1.03586      .   S
    O37    H29       1.03569      .   S
    O36    H28       1.03558      .   S
    H22    O34       1.03571      .   S
    H23    O35       1.03556      .   S
    H20    O32       1.03584      .   S
    H21    O33       1.03566      .   S
    O35    H18       1.03577      .   S
    O34    H17       1.03561      .   S
    O32    H15       1.03581      .   S
    O33    H16       1.03579      .   S
    O32    Cd19      2.32869      .   S
    O32    Cd3       2.33011      .   S
    O33    Cd0       2.33098      .   S
    O33    Cd4       2.32953      .   S
    O34    Cd1       2.32958      .   S
    O34    Cd5       2.33048      .   S
    O35    Cd2       2.33035      .   S
    O35    Cd6       2.32992      .   S
    O36    Cd7       2.33054      .   S
    O36    Cd11      2.32997      .   S
    O37    Cd8       2.32958      .   S
    O37    Cd12      2.33050      .   S
    O38    Cd9       2.33036      .   S
    O38    Cd13      2.33010      .   S
    O39    Cd10      2.32868      .   S
    O39    Cd14      2.33007      .   S
