# CIF file generated by openbabel 2.4.90, see http://openbabel.sf.net
data_I
_chemical_name_common ''
_cell_length_a 23.83
_cell_length_b 23.831
_cell_length_c 15.27
_cell_angle_alpha 109.83
_cell_angle_beta 109.896
_cell_angle_gamma 97.193
_space_group_name_H-M_alt 'P 1'
_space_group_name_Hall 'P 1'
loop_
    _symmetry_equiv_pos_as_xyz
    x,y,z
loop_
    _atom_site_label
    _atom_site_type_symbol
    _atom_site_fract_x
    _atom_site_fract_y
    _atom_site_fract_z
    _atom_site_occupancy
    N0      N    0.87579   0.91204   0.40531   1.000
    N1      N    0.96023   0.69158   0.15377   1.000
    N2      N    0.96029   0.19174   0.15383   1.000
    N3      N    0.37577   0.91207   0.40529   1.000
    N4      N    0.30839   0.53970   0.34620   1.000
    N5      N    0.46040   0.19176   0.15391   1.000
    N6      N    0.46041   0.69165   0.15400   1.000
    N7      N    0.87577   0.41203   0.40521   1.000
    N8      N    0.41188   0.37585   0.90515   1.000
    N9      N    0.41195   0.87586   0.90517   1.000
    N10     N    0.53955   0.30832   0.84600   1.000
    N11     N    0.53956   0.80822   0.84606   1.000
    N12     N    0.91200   0.87589   0.90527   1.000
    N13     N    0.03965   0.30840   0.84624   1.000
    N14     N    0.03959   0.80824   0.84618   1.000
    N15     N    0.12416   0.08789   0.59469   1.000
    N16     N    0.37575   0.41211   0.40535   1.000
    N17     N    0.91205   0.37586   0.90517   1.000
    N18     N    0.69157   0.46028   0.65380   1.000
    N19     N    0.19169   0.96031   0.65385   1.000
    N20     N    0.19171   0.46043   0.65386   1.000
    N21     N    0.08790   0.12408   0.09473   1.000
    N22     N    0.69160   0.96028   0.65374   1.000
    N23     N    0.30836   0.03963   0.34627   1.000
    N24     N    0.08785   0.62412   0.09475   1.000
    N25     N    0.58801   0.12412   0.09483   1.000
    N26     N    0.58807   0.62412   0.09486   1.000
    N27     N    0.62419   0.08786   0.59471   1.000
    N28     N    0.62421   0.58786   0.59465   1.000
    N29     N    0.12419   0.58795   0.59478   1.000
    N30     N    0.80825   0.53955   0.34607   1.000
    N31     N    0.80826   0.03960   0.34615   1.000
    Zr32    Zr   0.58951   0.91020   0.24991   1.000
    O33     O    0.51778   0.89390   0.15041   1.000
    O34     O    0.50576   0.90639   0.30286   1.000
    O35     O    0.60396   0.91952   0.37982   1.000
    O36     O    0.58175   0.96340   0.35505   1.000
    O37     O    0.53430   0.83681   0.22756   1.000
    O38     O    0.66297   0.96549   0.27237   1.000
    O39     O    0.58019   0.89577   0.11999   1.000
    O40     O    0.59344   0.99400   0.19708   1.000
    O41     O    0.60593   0.98194   0.34945   1.000
    O42     O    0.53623   0.91808   0.14482   1.000
    Zr43    Zr   0.41045   0.08978   0.75009   1.000
    O44     O    0.40651   0.00598   0.80293   1.000
    O45     O    0.41977   0.10421   0.88000   1.000
    O46     O    0.46372   0.08190   0.85519   1.000
    O47     O    0.33698   0.03448   0.72763   1.000
    O48     O    0.39403   0.01803   0.65056   1.000
    O49     O    0.39599   0.08044   0.62018   1.000
    O50     O    0.49419   0.09357   0.69714   1.000
    O51     O    0.46566   0.16316   0.77244   1.000
    O52     O    0.48218   0.10608   0.84960   1.000
    O53     O    0.41821   0.03647   0.64495   1.000
    Zr54    Zr   0.91033   0.08980   0.75002   1.000
    O55     O    0.96349   0.08190   0.85512   1.000
    O56     O    0.83687   0.03447   0.72756   1.000
    O57     O    0.89398   0.01803   0.65056   1.000
    O58     O    0.91962   0.10421   0.87993   1.000
    O59     O    0.90644   0.00600   0.80293   1.000
    O60     O    0.89589   0.08045   0.62010   1.000
    O61     O    0.96561   0.16321   0.77248   1.000
    O62     O    0.91816   0.03649   0.64490   1.000
    O63     O    0.98205   0.10608   0.84951   1.000
    O64     O    0.99412   0.09361   0.69709   1.000
    Zr65    Zr   0.58942   0.41010   0.24983   1.000
    O66     O    0.58167   0.46348   0.35498   1.000
    O67     O    0.50570   0.40637   0.30284   1.000
    O68     O    0.53424   0.33682   0.22749   1.000
    O69     O    0.51765   0.39386   0.15035   1.000
    O70     O    0.60389   0.41954   0.37982   1.000
    O71     O    0.66292   0.46540   0.27230   1.000
    O72     O    0.58015   0.39575   0.11992   1.000
    O73     O    0.60589   0.48185   0.34937   1.000
    O74     O    0.53618   0.41799   0.14476   1.000
    O75     O    0.59342   0.49394   0.19703   1.000
    Zr76    Zr   0.41053   0.58988   0.75015   1.000
    O77     O    0.40654   0.50604   0.80297   1.000
    O78     O    0.41981   0.60422   0.88008   1.000
    O79     O    0.46378   0.58199   0.85524   1.000
    O80     O    0.33703   0.53457   0.72767   1.000
    O81     O    0.39406   0.51813   0.65062   1.000
    O82     O    0.46572   0.66316   0.77249   1.000
    O83     O    0.41828   0.53649   0.64501   1.000
    O84     O    0.39607   0.58043   0.62017   1.000
    O85     O    0.49426   0.59360   0.69716   1.000
    O86     O    0.48231   0.60612   0.84965   1.000
    Zr87    Zr   0.91032   0.58977   0.75000   1.000
    O88     O    0.96346   0.58190   0.85512   1.000
    O89     O    0.90645   0.50596   0.80287   1.000
    O90     O    0.91958   0.60413   0.87989   1.000
    O91     O    0.89395   0.51802   0.65048   1.000
    O92     O    0.83685   0.53444   0.72754   1.000
    O93     O    0.98203   0.60606   0.84953   1.000
    O94     O    0.96559   0.66311   0.77244   1.000
    O95     O    0.91816   0.53641   0.64487   1.000
    O96     O    0.89587   0.58034   0.62004   1.000
    O97     O    0.99412   0.59357   0.69712   1.000
    Zr98    Zr   0.08963   0.91018   0.24999   1.000
    O99     O    0.10407   0.91951   0.37991   1.000
    O100    O    0.08180   0.96340   0.35511   1.000
    O101    O    0.00584   0.90635   0.30292   1.000
    O102    O    0.01789   0.89390   0.15050   1.000
    O103    O    0.03432   0.83677   0.22753   1.000
    O104    O    0.16309   0.96549   0.27246   1.000
    O105    O    0.10597   0.98194   0.34945   1.000
    O106    O    0.09350   0.99398   0.19707   1.000
    O107    O    0.03635   0.91808   0.14488   1.000
    O108    O    0.08032   0.89577   0.12008   1.000
    Zr109   Zr   0.08964   0.41021   0.25000   1.000
    O110    O    0.08180   0.46357   0.35513   1.000
    O111    O    0.10409   0.41964   0.37994   1.000
    O112    O    0.01792   0.39392   0.15046   1.000
    O113    O    0.00584   0.40641   0.30288   1.000
    O114    O    0.03435   0.33687   0.22756   1.000
    O115    O    0.16311   0.46554   0.27246   1.000
    O116    O    0.10601   0.48196   0.34951   1.000
    O117    O    0.09350   0.49402   0.19710   1.000
    O118    O    0.03639   0.41808   0.14487   1.000
    O119    O    0.08036   0.39585   0.12012   1.000
loop_
    _geom_bond_atom_site_label_1
    _geom_bond_atom_site_label_2
    _geom_bond_distance
    _geom_bond_site_symmetry_2
    _ccdc_geom_bond_type
    Zr32   O33       1.74560      .   S
    N9     O33       3.57431  1_556   S
    Zr32   O34       2.39742      .   S
    N3     O34       3.91414      .   S
    Zr32   O35       1.82213      .   S
    N22    O35       3.68649      .   S
    Zr32   O36       1.76057      .   S
    N27    O36       3.54645  1_545   S
    Zr32   O37       1.90236      .   S
    N6     O37       3.28960      .   S
    Zr32   O38       1.90406      .   S
    N31    O38       3.29237  1_545   S
    Zr32   O39       1.82241      .   S
    N11    O39       3.68831  1_556   S
    Zr32   O40       2.39710      .   S
    N25    O40       3.91362  1_545   S
    Zr32   O41       1.74668      .   S
    N27    O41       3.57620  1_545   S
    Zr32   O42       1.76058      .   S
    N9     O42       3.54315  1_556   S
    Zr43   O44       2.39717      .   S
    N9     O44       3.91369  1_565   S
    Zr43   O45       1.82238      .   S
    N5     O45       3.68800  1_554   S
    Zr43   O46       1.76068      .   S
    N25    O46       3.54322  1_554   S
    Zr43   O47       1.90429      .   S
    N19    O47       3.29272  1_565   S
    Zr43   O48       1.74686      .   S
    N3     O48       3.57651  1_565   S
    Zr43   O49       1.82191      .   S
    N23    O49       3.68613      .   S
    Zr43   O50       2.39739      .   S
    N27    O50       3.91416      .   S
    Zr43   O51       1.90233      .   S
    N10    O51       3.28958      .   S
    Zr43   O52       1.74564      .   S
    N25    O52       3.57440  1_554   S
    Zr43   O53       1.76161      .   S
    N3     O53       3.54587  1_565   S
    Zr54   O55       1.75973      .   S
    N21    O55       3.54429  1_454   S
    Zr54   O56       1.90437      .   S
    N22    O56       3.29253  1_565   S
    Zr54   O57       1.74698      .   S
    N0     O57       3.57708  1_565   S
    Zr54   O58       1.82263      .   S
    N2     O58       3.68758  1_554   S
    Zr54   O59       2.39771      .   S
    N12    O59       3.91435  1_565   S
    Zr54   O60       1.82216      .   S
    N31    O60       3.68635      .   S
    Zr54   O61       1.90319      .   S
    N13    O61       3.29066  1_455   S
    Zr54   O62       1.76223      .   S
    N0     O62       3.54601  1_565   S
    Zr54   O63       1.74546      .   S
    N21    O63       3.57457  1_454   S
    Zr54   O64       2.39815      .   S
    N15    O64       3.91491  1_455   S
    Zr65   O66       1.76221      .   S
    N28    O66       3.54545      .   S
    Zr65   O67       2.39740      .   S
    N16    O67       3.91380      .   S
    Zr65   O68       1.90023      .   S
    N5     O68       3.28702      .   S
    Zr65   O69       1.74639      .   S
    N8     O69       3.57373  1_556   S
    Zr65   O70       1.82238      .   S
    N18    O70       3.68752      .   S
    Zr65   O71       1.90491      .   S
    N30    O71       3.29331      .   S
    Zr65   O72       1.82309      .   S
    N10    O72       3.68786  1_556   S
    Zr65   O73       1.74655      .   S
    N28    O73       3.57676      .   S
    Zr65   O74       1.76016      .   S
    N8     O74       3.54332  1_556   S
    Zr65   O75       2.39756      .   S
    N26    O75       3.91452      .   S
    Zr76   O77       2.39767      .   S
    N8     O77       3.91463      .   S
    Zr76   O78       1.82326      .   S
    N6     O78       3.68799  1_554   S
    Zr76   O79       1.76032      .   S
    N26    O79       3.54349  1_554   S
    Zr76   O80       1.90484      .   S
    N20    O80       3.29315      .   S
    Zr76   O81       1.74650      .   S
    N16    O81       3.57663      .   S
    Zr76   O82       1.90025      .   S
    N11    O82       3.28710      .   S
    Zr76   O83       1.76207      .   S
    N16    O83       3.54537      .   S
    Zr76   O84       1.82224      .   S
    N4     O84       3.68746      .   S
    Zr76   O85       2.39731      .   S
    N28    O85       3.91376      .   S
    Zr76   O86       1.74650      .   S
    N26    O86       3.57394  1_554   S
    Zr87   O88       1.75942      .   S
    N24    O88       3.54415  1_454   S
    Zr87   O89       2.39728      .   S
    N17    O89       3.91399      .   S
    Zr87   O90       1.82265      .   S
    N1     O90       3.68723  1_554   S
    Zr87   O91       1.74690      .   S
    N7     O91       3.57744      .   S
    Zr87   O92       1.90454      .   S
    N18    O92       3.29267      .   S
    Zr87   O93       1.74537      .   S
    N24    O93       3.57406  1_454   S
    Zr87   O94       1.90187      .   S
    N14    O94       3.28922  1_455   S
    Zr87   O95       1.76287      .   S
    N7     O95       3.54591      .   S
    Zr87   O96       1.82222      .   S
    N30    O96       3.68697      .   S
    Zr87   O97       2.39802      .   S
    N29    O97       3.91480  1_455   S
    Zr98   O99       1.82225      .   S
    N19    O99       3.68653      .   S
    Zr98   O100      1.76126      .   S
    N15    O100      3.54643  1_545   S
    Zr98   O101      2.39817      .   S
    N0     O101      3.91489  1_655   S
    Zr98   O102      1.74571      .   S
    N12    O102      3.57506  1_656   S
    Zr98   O103      1.90343      .   S
    N1     O103      3.29105  1_655   S
    Zr98   O104      1.90415      .   S
    N23    O104      3.29217  1_545   S
    Zr98   O105      1.74677      .   S
    N15    O105      3.57672  1_545   S
    Zr98   O106      2.39771      .   S
    N21    O106      3.91441  1_545   S
    Zr98   O107      1.76108      .   S
    N12    O107      3.54366  1_656   S
    Zr98   O108      1.82252      .   S
    N14    O108      3.68735  1_556   S
    Zr109  O110      1.76285      .   S
    N29    O110      3.54578      .   S
    Zr109  O111      1.82183      .   S
    N20    O111      3.68640      .   S
    Zr109  O112      1.74573      .   S
    N17    O112      3.57514  1_656   S
    Zr109  O113      2.39801      .   S
    N7     O113      3.91471  1_655   S
    Zr109  O114      1.90211      .   S
    N2     O114      3.28964  1_655   S
    Zr109  O115      1.90459      .   S
    N4     O115      3.29264      .   S
    Zr109  O116      1.74678      .   S
    N29    O116      3.57746      .   S
    Zr109  O117      2.39760      .   S
    N24    O117      3.91448      .   S
    Zr109  O118      1.76081      .   S
    N17    O118      3.54415  1_656   S
    Zr109  O119      1.82255      .   S
    N13    O119      3.68693  1_556   S
