# CIF file generated by openbabel 2.4.90, see http://openbabel.sf.net
data_I
_chemical_name_common ''
_cell_length_a 23.83
_cell_length_b 23.831
_cell_length_c 15.27
_cell_angle_alpha 109.83
_cell_angle_beta 109.896
_cell_angle_gamma 97.193
_space_group_name_H-M_alt 'P 1'
_space_group_name_Hall 'P 1'
loop_
    _symmetry_equiv_pos_as_xyz
    x,y,z
loop_
    _atom_site_label
    _atom_site_type_symbol
    _atom_site_fract_x
    _atom_site_fract_y
    _atom_site_fract_z
    _atom_site_occupancy
    Zr0     Zr   0.39092   0.01033   0.78210   1.000
    Zr1     Zr   0.39091   0.51043   0.78217   1.000
    Zr2     Zr   0.89080   0.01035   0.78212   1.000
    Zr3     Zr   0.89074   0.51030   0.78199   1.000
    Zr4     Zr   0.48991   0.10924   0.71805   1.000
    Zr5     Zr   0.49002   0.60912   0.71809   1.000
    Zr6     Zr   0.98982   0.10929   0.71796   1.000
    Zr7     Zr   0.98982   0.60911   0.71797   1.000
    Zr8     Zr   0.10922   0.48968   0.21800   1.000
    Zr9     Zr   0.10916   0.98963   0.21789   1.000
    Zr10    Zr   0.60905   0.48955   0.21784   1.000
    Zr11    Zr   0.60904   0.98965   0.21791   1.000
    Zr12    Zr   0.01014   0.39087   0.28204   1.000
    Zr13    Zr   0.01014   0.89069   0.28205   1.000
    Zr14    Zr   0.50994   0.39085   0.28192   1.000
    Zr15    Zr   0.51005   0.89074   0.28196   1.000
    Zr16    Zr   0.40142   0.13137   0.81594   1.000
    Zr17    Zr   0.40147   0.63144   0.81601   1.000
    Zr18    Zr   0.90123   0.13137   0.81580   1.000
    Zr19    Zr   0.90122   0.63134   0.81584   1.000
    Zr20    Zr   0.36885   0.09892   0.68427   1.000
    Zr21    Zr   0.36900   0.59915   0.68435   1.000
    Zr22    Zr   0.86874   0.09891   0.68420   1.000
    Zr23    Zr   0.86876   0.59897   0.68421   1.000
    Zr24    Zr   0.09874   0.36864   0.18417   1.000
    Zr25    Zr   0.09873   0.86861   0.18421   1.000
    Zr26    Zr   0.59848   0.36853   0.18400   1.000
    Zr27    Zr   0.59853   0.86860   0.18400   1.000
    Zr28    Zr   0.13120   0.40101   0.31580   1.000
    Zr29    Zr   0.13121   0.90107   0.31581   1.000
    Zr30    Zr   0.63096   0.40082   0.31560   1.000
    Zr31    Zr   0.63111   0.90106   0.31574   1.000
    Zr32    Zr   0.40114   0.09906   0.75009   1.000
    Zr33    Zr   0.40126   0.59924   0.75013   1.000
    Zr34    Zr   0.90105   0.09908   0.75003   1.000
    Zr35    Zr   0.90104   0.59911   0.75001   1.000
    Zr36    Zr   0.09892   0.40087   0.25000   1.000
    Zr37    Zr   0.09891   0.90089   0.24998   1.000
    Zr38    Zr   0.59869   0.40074   0.24980   1.000
    Zr39    Zr   0.59882   0.90092   0.24992   1.000
    O40     O    0.59859   0.38463   0.21690   1.000
    O41     O    0.59867   0.88476   0.21696   1.000
    O42     O    0.09883   0.38476   0.21709   1.000
    O43     O    0.09882   0.88475   0.21710   1.000
    O44     O    0.61483   0.40078   0.28270   1.000
    O45     O    0.61496   0.90099   0.28283   1.000
    O46     O    0.11506   0.90098   0.28290   1.000
    O47     O    0.11506   0.40094   0.28290   1.000
    O48     O    0.88490   0.09900   0.71712   1.000
    O49     O    0.88490   0.59904   0.71711   1.000
    O50     O    0.38499   0.09899   0.71718   1.000
    O51     O    0.38513   0.59919   0.71724   1.000
    O52     O    0.90113   0.61522   0.78293   1.000
    O53     O    0.90114   0.11523   0.78292   1.000
    O54     O    0.40128   0.11522   0.78302   1.000
    O55     O    0.40136   0.61534   0.78307   1.000
    O56     O    0.39603   0.05469   0.76610   1.000
    O57     O    0.44552   0.10415   0.73407   1.000
    O58     O    0.39609   0.55483   0.76615   1.000
    O59     O    0.44564   0.60418   0.73411   1.000
    O60     O    0.89592   0.05471   0.76608   1.000
    O61     O    0.94543   0.10419   0.73400   1.000
    O62     O    0.89589   0.55471   0.76600   1.000
    O63     O    0.94543   0.60411   0.73399   1.000
    O64     O    0.10407   0.44527   0.23400   1.000
    O65     O    0.05453   0.39587   0.26602   1.000
    O66     O    0.10404   0.94526   0.23394   1.000
    O67     O    0.05453   0.89579   0.26602   1.000
    O68     O    0.60387   0.44514   0.23382   1.000
    O69     O    0.55432   0.39580   0.26586   1.000
    O70     O    0.60393   0.94529   0.23392   1.000
    O71     O    0.55444   0.89583   0.26594   1.000
    N72     N    0.87579   0.91204   0.40531   1.000
    O73     O    0.87764   0.94626   0.55109   1.000
    O74     O    0.92599   0.98317   0.53977   1.000
    O75     O    0.92205   0.90253   0.35584   1.000
    N76     N    0.96023   0.69158   0.15377   1.000
    O77     O    0.92884   0.61849   0.00977   1.000
    O78     O    0.97902   0.76336   0.20508   1.000
    N79     N    0.96029   0.19174   0.15383   1.000
    O80     O    0.92891   0.11863   0.00984   1.000
    O81     O    0.97906   0.26353   0.20512   1.000
    N82     N    0.37577   0.91207   0.40529   1.000
    O83     O    0.37761   0.94628   0.55102   1.000
    O84     O    0.42598   0.98315   0.53981   1.000
    O85     O    0.42202   0.90259   0.35582   1.000
    N86     N    0.30839   0.53970   0.34620   1.000
    O87     O    0.38160   0.57099   0.49020   1.000
    O88     O    0.23658   0.52086   0.29491   1.000
    N89     N    0.46040   0.19176   0.15391   1.000
    O90     O    0.42909   0.11864   0.00992   1.000
    O91     O    0.47905   0.26354   0.20515   1.000
    N92     N    0.46041   0.69165   0.15400   1.000
    O93     O    0.42909   0.61857   0.01001   1.000
    O94     O    0.47909   0.76343   0.20521   1.000
    N95     N    0.87577   0.41203   0.40521   1.000
    O96     O    0.87758   0.44627   0.55096   1.000
    O97     O    0.92600   0.48305   0.53973   1.000
    O98     O    0.92203   0.40260   0.35576   1.000
    N99     N    0.41188   0.37585   0.90515   1.000
    O100    O    0.40255   0.42221   0.85578   1.000
    O101    O    0.48294   0.42587   0.03969   1.000
    O102    O    0.44587   0.37762   0.05087   1.000
    N103    N    0.41195   0.87586   0.90517   1.000
    O104    O    0.40258   0.92217   0.85576   1.000
    O105    O    0.48296   0.92595   0.03973   1.000
    O106    O    0.44604   0.87761   0.05090   1.000
    N107    N    0.53955   0.30832   0.84600   1.000
    O108    O    0.52087   0.23655   0.79480   1.000
    O109    O    0.57087   0.38141   0.99000   1.000
    N110    N    0.53956   0.80822   0.84606   1.000
    O111    O    0.52091   0.73644   0.79484   1.000
    O112    O    0.57087   0.88134   0.99008   1.000
    N113    N    0.91200   0.87589   0.90527   1.000
    O114    O    0.90255   0.92220   0.85585   1.000
    O115    O    0.94615   0.87762   0.05101   1.000
    O116    O    0.98307   0.92597   0.03977   1.000
    N117    N    0.03965   0.30840   0.84624   1.000
    O118    O    0.02090   0.23662   0.79493   1.000
    O119    O    0.07108   0.38149   0.99023   1.000
    N120    N    0.03959   0.80824   0.84618   1.000
    O121    O    0.02086   0.73645   0.79488   1.000
    O122    O    0.07101   0.88135   0.99016   1.000
    N123    N    0.12416   0.08789   0.59469   1.000
    O124    O    0.07791   0.09742   0.64416   1.000
    O125    O    0.12232   0.05369   0.44891   1.000
    O126    O    0.07397   0.01662   0.46023   1.000
    N127    N    0.37575   0.41211   0.40535   1.000
    O128    O    0.37760   0.44638   0.55110   1.000
    O129    O    0.42603   0.48311   0.53988   1.000
    O130    O    0.42197   0.40265   0.35585   1.000
    N131    N    0.91205   0.37586   0.90517   1.000
    O132    O    0.90258   0.42216   0.85574   1.000
    O133    O    0.98313   0.42596   0.03973   1.000
    O134    O    0.94620   0.37763   0.05092   1.000
    N135    N    0.69157   0.46028   0.65380   1.000
    O136    O    0.61836   0.42899   0.50981   1.000
    O137    O    0.76338   0.47912   0.70507   1.000
    N138    N    0.19169   0.96031   0.65385   1.000
    O139    O    0.11851   0.92884   0.50983   1.000
    O140    O    0.26352   0.97917   0.70516   1.000
    N141    N    0.19171   0.46043   0.65386   1.000
    O142    O    0.11853   0.42907   0.50987   1.000
    O143    O    0.26353   0.47927   0.70520   1.000
    N144    N    0.08790   0.12408   0.09473   1.000
    O145    O    0.01665   0.07401   0.96022   1.000
    O146    O    0.05378   0.12235   0.94899   1.000
    O147    O    0.09738   0.07778   0.14416   1.000
    N148    N    0.69160   0.96028   0.65374   1.000
    O149    O    0.61842   0.92884   0.50973   1.000
    O150    O    0.76342   0.97914   0.70509   1.000
    N151    N    0.30836   0.03963   0.34627   1.000
    O152    O    0.38154   0.07110   0.49028   1.000
    O153    O    0.23654   0.02080   0.29492   1.000
    N154    N    0.08785   0.62412   0.09475   1.000
    O155    O    0.05373   0.62235   0.94905   1.000
    O156    O    0.01661   0.57403   0.96023   1.000
    O157    O    0.09736   0.57782   0.14420   1.000
    N158    N    0.58801   0.12412   0.09483   1.000
    O159    O    0.55391   0.12237   0.94910   1.000
    O160    O    0.51700   0.07402   0.96028   1.000
    O161    O    0.59738   0.07781   0.14425   1.000
    N162    N    0.58807   0.62412   0.09486   1.000
    O163    O    0.55408   0.62236   0.94914   1.000
    O164    O    0.51702   0.57411   0.96032   1.000
    O165    O    0.59741   0.57777   0.14423   1.000
    N166    N    0.62419   0.08786   0.59471   1.000
    O167    O    0.62235   0.05368   0.44899   1.000
    O168    O    0.57398   0.01661   0.46020   1.000
    O169    O    0.57794   0.09737   0.64419   1.000
    N170    N    0.62421   0.58786   0.59465   1.000
    O171    O    0.62236   0.55359   0.44891   1.000
    O172    O    0.57393   0.51687   0.46013   1.000
    O173    O    0.57799   0.59733   0.64416   1.000
    N174    N    0.12419   0.58795   0.59478   1.000
    O175    O    0.12238   0.55370   0.44901   1.000
    O176    O    0.07396   0.51693   0.46027   1.000
    O177    O    0.07793   0.59738   0.64424   1.000
    N178    N    0.80825   0.53955   0.34607   1.000
    O179    O    0.88143   0.57091   0.49008   1.000
    O180    O    0.73643   0.52071   0.29477   1.000
    N181    N    0.80826   0.03960   0.34615   1.000
    O182    O    0.88144   0.07111   0.49018   1.000
    O183    O    0.73644   0.02078   0.29484   1.000
loop_
    _geom_bond_atom_site_label_1
    _geom_bond_atom_site_label_2
    _geom_bond_distance
    _geom_bond_site_symmetry_2
    _ccdc_geom_bond_type
    Zr26   O40       0.51744      .   S
    Zr38   O40       0.51744      .   S
    Zr27   O41       0.51829      .   S
    Zr39   O41       0.51829      .   S
    Zr24   O42       0.51789      .   S
    Zr36   O42       0.51789      .   S
    Zr25   O43       0.51781      .   S
    Zr37   O43       0.51781      .   S
    Zr38   O44       0.51794      .   S
    Zr30   O44       0.51794      .   S
    Zr39   O45       0.51793      .   S
    Zr31   O45       0.51793      .   S
    Zr37   O46       0.51784      .   S
    Zr29   O46       0.51784      .   S
    Zr36   O47       0.51779      .   S
    Zr28   O47       0.51779      .   S
    Zr22   O48       0.51785      .   S
    Zr34   O48       0.51785      .   S
    Zr23   O49       0.51778      .   S
    Zr35   O49       0.51778      .   S
    Zr20   O50       0.51792      .   S
    Zr32   O50       0.51792      .   S
    Zr21   O51       0.51783      .   S
    Zr33   O51       0.51783      .   S
    Zr35   O52       0.51789      .   S
    Zr19   O52       0.51789      .   S
    Zr34   O53       0.51781      .   S
    Zr18   O53       0.51781      .   S
    Zr32   O54       0.51790      .   S
    Zr16   O54       0.51790      .   S
    Zr33   O55       0.51790      .   S
    Zr17   O55       0.51790      .   S
    Zr32   O56       1.16435      .   S
    Zr0    O56       1.16435      .   S
    Zr32   O57       1.16506      .   S
    Zr4    O57       1.16506      .   S
    Zr33   O58       1.16549      .   S
    Zr1    O58       1.16549      .   S
    Zr33   O59       1.16476      .   S
    Zr5    O59       1.16476      .   S
    Zr34   O60       1.16479      .   S
    Zr2    O60       1.16479      .   S
    Zr34   O61       1.16524      .   S
    Zr6    O61       1.16524      .   S
    Zr35   O62       1.16517      .   S
    Zr3    O62       1.16517      .   S
    Zr35   O63       1.16496      .   S
    Zr7    O63       1.16496      .   S
    Zr36   O64       1.16527      .   S
    Zr8    O64       1.16527      .   S
    Zr36   O65       1.16498      .   S
    Zr12   O65       1.16498      .   S
    Zr37   O66       1.16479      .   S
    Zr9    O66       1.16479      .   S
    Zr37   O67       1.16525      .   S
    Zr13   O67       1.16525      .   S
    Zr38   O68       1.16518      .   S
    Zr10   O68       1.16518      .   S
    Zr38   O69       1.16505      .   S
    Zr14   O69       1.16505      .   S
    Zr39   O70       1.16434      .   S
    Zr11   O70       1.16434      .   S
    Zr39   O71       1.16503      .   S
    Zr15   O71       1.16503      .   S
    N72    O73       2.07722      .   S
    Zr2    O73       3.21686  1_545   S
    N72    O74       1.99483      .   S
    Zr6    O74       3.03978  1_545   S
    N72    O75       1.53299      .   S
    Zr13   O75       2.70160  1_455   S
    N76    O77       2.09379      .   S
    Zr3    O77       3.27868  1_556   S
    N76    O78       1.54952      .   S
    Zr13   O78       2.74990  1_455   S
    N79    O80       2.09392      .   S
    Zr2    O80       3.27892  1_556   S
    N79    O81       1.54959      .   S
    Zr12   O81       2.75030  1_455   S
    N82    O83       2.07659      .   S
    Zr0    O83       3.21619  1_545   S
    N82    O84       1.99483      .   S
    Zr4    O84       3.03975  1_545   S
    N82    O85       1.53290      .   S
    Zr15   O85       2.70099      .   S
    N86    O87       2.09411      .   S
    Zr5    O87       3.27993      .   S
    N86    O88       1.54936      .   S
    Zr8    O88       2.74939      .   S
    N89    O90       2.09431      .   S
    Zr0    O90       3.27989  1_556   S
    N89    O91       1.54941      .   S
    Zr14   O91       2.74989      .   S
    N92    O93       2.09391      .   S
    Zr1    O93       3.27855  1_556   S
    N92    O94       1.54937      .   S
    Zr15   O94       2.74970      .   S
    N95    O96       2.07712      .   S
    Zr3    O96       3.21675      .   S
    N95    O97       1.99432      .   S
    Zr7    O97       3.03911      .   S
    N95    O98       1.53283      .   S
    Zr12   O98       2.70114  1_455   S
    N99    O100      1.53305      .   S
    Zr1    O100      2.70141      .   S
    N99    O101      1.99344  1_556   S
    Zr10   O101      3.03767      .   S
    N99    O102      2.07607  1_556   S
    Zr14   O102      3.21507      .   S
    N103   O104      1.53265      .   S
    Zr0    O104      2.70054  1_545   S
    N103   O105      1.99336  1_556   S
    Zr11   O105      3.03745      .   S
    N103   O106      2.07653  1_556   S
    Zr15   O106      3.21576      .   S
    N107   O108      1.54936      .   S
    Zr4    O108      2.74970      .   S
    N107   O109      2.09393      .   S
    Zr10   O109      3.27855  1_554   S
    N110   O111      1.54939      .   S
    Zr5    O111      2.74989      .   S
    N110   O112      2.09453      .   S
    Zr11   O112      3.28009  1_554   S
    N113   O114      1.53282      .   S
    Zr2    O114      2.70108  1_545   S
    N113   O115      2.07683  1_556   S
    Zr13   O115      3.21608  1_455   S
    N113   O116      1.99348  1_556   S
    Zr9    O116      3.03717  1_455   S
    N117   O118      1.54955      .   S
    Zr6    O118      2.74992  1_655   S
    N117   O119      2.09366      .   S
    Zr8    O119      3.27837  1_554   S
    N120   O121      1.54961      .   S
    Zr7    O121      2.75031  1_655   S
    N120   O122      2.09383      .   S
    Zr9    O122      3.27877  1_554   S
    N123   O124      1.53306      .   S
    Zr6    O124      2.70164  1_655   S
    N123   O125      2.07718      .   S
    Zr9    O125      3.21673  1_565   S
    N123   O126      1.99620      .   S
    Zr13   O126      3.03696  1_565   S
    N127   O128      2.07678      .   S
    Zr1    O128      3.21610      .   S
    N127   O129      1.99424      .   S
    Zr5    O129      3.03866      .   S
    N127   O130      1.53248      .   S
    Zr14   O130      2.70010      .   S
    N131   O132      1.53295      .   S
    Zr3    O132      2.70125      .   S
    N131   O133      1.99409  1_556   S
    Zr8    O133      3.03822  1_455   S
    N131   O134      2.07649  1_556   S
    Zr12   O134      3.21573  1_455   S
    N135   O136      2.09405      .   S
    Zr14   O136      3.27989      .   S
    N135   O137      1.54936      .   S
    Zr3    O137      2.74940      .   S
    N138   O139      2.09359      .   S
    Zr13   O139      3.27822      .   S
    N138   O140      1.54959      .   S
    Zr0    O140      2.75037  1_545   S
    N141   O142      2.09361      .   S
    Zr12   O142      3.27865      .   S
    N141   O143      1.54951      .   S
    Zr1    O143      2.74994      .   S
    N144   O145      1.99539  1_554   S
    Zr2    O145      3.03344  1_655   S
    N144   O146      2.07673  1_554   S
    Zr6    O146      3.21595  1_655   S
    N144   O147      1.53293      .   S
    Zr9    O147      2.70116  1_565   S
    N148   O149      2.09354      .   S
    Zr15   O149      3.27829      .   S
    N148   O150      1.54950      .   S
    Zr2    O150      2.74983  1_545   S
    N151   O152      2.09344      .   S
    Zr4    O152      3.27812      .   S
    N151   O153      1.54953      .   S
    Zr9    O153      2.74986  1_565   S
    N154   O155      2.07588  1_554   S
    Zr7    O155      3.21509  1_655   S
    N154   O156      1.99548  1_554   S
    Zr3    O156      3.03472  1_655   S
    N154   O157      1.53315      .   S
    Zr8    O157      2.70178      .   S
    N158   O159      2.07652  1_554   S
    Zr4    O159      3.21576      .   S
    N158   O160      1.99335  1_554   S
    Zr0    O160      3.03743      .   S
    N158   O161      1.53265      .   S
    Zr11   O161      2.70053  1_565   S
    N162   O163      2.07610  1_554   S
    Zr5    O163      3.21508      .   S
    N162   O164      1.99345  1_554   S
    Zr1    O164      3.03768      .   S
    N162   O165      1.53306      .   S
    Zr10   O165      2.70145      .   S
    N166   O167      2.07655      .   S
    Zr11   O167      3.21610  1_565   S
    N166   O168      1.99641      .   S
    Zr15   O168      3.03660  1_565   S
    N166   O169      1.53300      .   S
    Zr4    O169      2.70110      .   S
    N170   O171      2.07676      .   S
    Zr10   O171      3.21606      .   S
    N170   O172      1.99420      .   S
    Zr14   O172      3.03865      .   S
    N170   O173      1.53255      .   S
    Zr5    O173      2.70014      .   S
    N174   O175      2.07738      .   S
    Zr8    O175      3.21652      .   S
    N174   O176      1.99423      .   S
    Zr12   O176      3.03904      .   S
    N174   O177      1.53292      .   S
    Zr7    O177      2.70121  1_655   S
    N178   O179      2.09377      .   S
    Zr7    O179      3.27928      .   S
    N178   O180      1.54948      .   S
    Zr10   O180      2.74995      .   S
    N181   O182      2.09353      .   S
    Zr6    O182      3.27811      .   S
    N181   O183      1.54960      .   S
    Zr11   O183      2.75037  1_565   S
