# CIF file generated by openbabel 2.4.90, see http://openbabel.sf.net
data_I
_chemical_name_common ''
_cell_length_a 17.675
_cell_length_b 17.661
_cell_length_c 17.684
_cell_angle_alpha 90.659
_cell_angle_beta 119.543
_cell_angle_gamma 119.714
_space_group_name_H-M_alt 'P 1'
_space_group_name_Hall 'P 1'
loop_
    _symmetry_equiv_pos_as_xyz
    x,y,z
loop_
    _atom_site_label
    _atom_site_type_symbol
    _atom_site_fract_x
    _atom_site_fract_y
    _atom_site_fract_z
    _atom_site_occupancy
    Zn0     Zn   0.46800   0.24795   0.43690   1.000
    Zn1     Zn   0.68789   0.21961   0.75156   1.000
    Zn2     Zn   0.81187   0.56342   0.53162   1.000
    Zn3     Zn   0.31214   0.78035   0.24843   1.000
    Zn4     Zn   0.18816   0.43655   0.46836   1.000
    Zn5     Zn   0.96837   0.53124   0.22019   1.000
    Zn6     Zn   0.53203   0.75201   0.56302   1.000
    Zn7     Zn   0.03166   0.46871   0.77980   1.000
