# CIF file generated by openbabel 2.4.90, see http://openbabel.sf.net
data_I
_chemical_name_common ''
_cell_length_a 17.675
_cell_length_b 17.661
_cell_length_c 17.684
_cell_angle_alpha 90.659
_cell_angle_beta 119.543
_cell_angle_gamma 119.714
_space_group_name_H-M_alt 'P 1'
_space_group_name_Hall 'P 1'
loop_
    _symmetry_equiv_pos_as_xyz
    x,y,z
loop_
    _atom_site_label
    _atom_site_type_symbol
    _atom_site_fract_x
    _atom_site_fract_y
    _atom_site_fract_z
    _atom_site_occupancy
    Zr0     Zr   0.03166   0.46871   0.77980   1.000
    Zr1     Zr   0.46800   0.24795   0.43690   1.000
    Zr2     Zr   0.68789   0.21961   0.75156   1.000
    Zr3     Zr   0.81187   0.56342   0.53162   1.000
    Zr4     Zr   0.31214   0.78035   0.24843   1.000
    Zr5     Zr   0.18816   0.43655   0.46836   1.000
    Zr6     Zr   0.96837   0.53124   0.22019   1.000
    Zr7     Zr   0.53203   0.75201   0.56302   1.000
    N8      N    0.48027   0.37841   0.55789   1.000
    O9      O    0.47663   0.33593   0.51790   1.000
    O10     O    0.62239   0.46531   0.55499   1.000
    O11     O    0.43895   0.29126   0.49560   1.000
    N12     N    0.74965   0.87463   0.12445   1.000
    O13     O    0.56100   0.83661   0.18291   1.000
    O14     O    0.93873   0.12194   0.27538   1.000
    O15     O    0.65337   0.81675   0.87729   1.000
    O16     O    0.84641   0.72393   0.16317   1.000
    N17     N    0.51976   0.62155   0.44209   1.000
    O18     O    0.56108   0.70871   0.50437   1.000
    O19     O    0.37764   0.53465   0.44499   1.000
    O20     O    0.52341   0.66403   0.48205   1.000
    N21     N    0.01986   0.57775   0.89807   1.000
    O22     O    0.87762   0.43265   0.84286   1.000
    O23     O    0.02334   0.54130   0.85920   1.000
    O24     O    0.06093   0.55664   0.85214   1.000
    N25     N    0.25021   0.12534   0.87554   1.000
    O26     O    0.34658   0.18321   0.12269   1.000
    O27     O    0.43895   0.16335   0.81708   1.000
    O28     O    0.06121   0.87803   0.72460   1.000
    O29     O    0.15354   0.27603   0.83682   1.000
    N30     N    0.17947   0.55801   0.57734   1.000
    O31     O    0.20393   0.49551   0.55616   1.000
    O32     O    0.08976   0.55492   0.43264   1.000
    O33     O    0.18169   0.51785   0.54091   1.000
    N34     N    0.98017   0.42221   0.10192   1.000
    O35     O    0.12241   0.56731   0.15712   1.000
    O36     O    0.93910   0.44331   0.14786   1.000
    O37     O    0.97669   0.45866   0.14079   1.000
    N38     N    0.82056   0.44195   0.42264   1.000
    O39     O    0.81834   0.48211   0.45907   1.000
    O40     O    0.79610   0.50445   0.44380   1.000
    O41     O    0.91027   0.44504   0.56735   1.000
    N42     N    0.67956   0.10205   0.62168   1.000
    O43     O    0.70388   0.14765   0.70850   1.000
    O44     O    0.68164   0.14065   0.66397   1.000
    O45     O    0.58963   0.15695   0.53493   1.000
    N46     N    0.32048   0.89791   0.37829   1.000
    O47     O    0.29615   0.85231   0.29147   1.000
    O48     O    0.41040   0.84301   0.46503   1.000
    O49     O    0.31840   0.85931   0.33601   1.000
loop_
    _geom_bond_atom_site_label_1
    _geom_bond_atom_site_label_2
    _geom_bond_distance
    _geom_bond_site_symmetry_2
    _ccdc_geom_bond_type
    N8     O9        0.98079      .   S
    Zr1    O9        1.99701      .   S
    N8     O10       2.23040      .   S
    Zr3    O10       3.16514      .   S
    N8     O11       1.47285      .   S
    Zr1    O11       1.68004      .   S
    N12    O13       3.71937      .   S
    Zr4    O13       4.73245      .   S
    N12    O14       3.71954  1_565   S
    Zr5    O14       4.73270  1_455   S
    N12    O15       3.72593  1_554   S
    Zr7    O15       4.73939      .   S
    N12    O16       3.72512      .   S
    Zr6    O16       4.73841      .   S
    N17    O18       1.47278      .   S
    Zr7    O18       1.67941      .   S
    N17    O19       2.23049      .   S
    Zr5    O19       3.16522      .   S
    N17    O20       0.98049      .   S
    Zr7    O20       1.99666      .   S
    N21    O22       2.23070  1_455   S
    Zr2    O22       3.16569      .   S
    N21    O23       0.98061      .   S
    Zr0    O23       1.99635      .   S
    N21    O24       1.47258      .   S
    Zr0    O24       1.67958      .   S
    N25    O26       3.72533  1_556   S
    Zr1    O26       4.73814      .   S
    N25    O27       3.72081      .   S
    Zr2    O27       4.73392      .   S
    N25    O28       3.71958  1_545   S
    Zr3    O28       4.73271  1_655   S
    N25    O29       3.72394      .   S
    Zr0    O29       4.73723      .   S
    N30    O31       1.47257      .   S
    Zr5    O31       1.67958      .   S
    N30    O32       2.23045      .   S
    Zr6    O32       3.16514  1_655   S
    N30    O33       0.98057      .   S
    Zr5    O33       1.99639      .   S
    N34    O35       2.23069  1_655   S
    Zr4    O35       3.16570      .   S
    N34    O36       1.47265      .   S
    Zr6    O36       1.67959      .   S
    N34    O37       0.98063      .   S
    Zr6    O37       1.99641      .   S
    N38    O39       0.98064      .   S
    Zr3    O39       1.99644      .   S
    N38    O40       1.47247      .   S
    Zr3    O40       1.67994      .   S
    N38    O41       2.23053      .   S
    Zr0    O41       3.16524  1_455   S
    N42    O43       1.47249      .   S
    Zr2    O43       1.67953      .   S
    N42    O44       0.98061      .   S
    Zr2    O44       1.99622      .   S
    N42    O45       2.23088      .   S
    Zr1    O45       3.16609      .   S
    N46    O47       1.47250      .   S
    Zr4    O47       1.67936      .   S
    N46    O48       2.23082      .   S
    Zr7    O48       3.16590      .   S
    N46    O49       0.98050      .   S
    Zr4    O49       1.99611      .   S
