# CIF file generated by openbabel 2.4.90, see http://openbabel.sf.net
data_I
_chemical_name_common ''
_cell_length_a 17.675
_cell_length_b 17.661
_cell_length_c 17.684
_cell_angle_alpha 90.659
_cell_angle_beta 119.543
_cell_angle_gamma 119.714
_space_group_name_H-M_alt 'P 1'
_space_group_name_Hall 'P 1'
loop_
    _symmetry_equiv_pos_as_xyz
    x,y,z
loop_
    _atom_site_label
    _atom_site_type_symbol
    _atom_site_fract_x
    _atom_site_fract_y
    _atom_site_fract_z
    _atom_site_occupancy
    C0      C    0.03166   0.46871   0.77980   1.000
    C1      C    0.46800   0.24795   0.43690   1.000
    C2      C    0.68789   0.21961   0.75156   1.000
    C3      C    0.81187   0.56342   0.53162   1.000
    C4      C    0.31214   0.78035   0.24843   1.000
    C5      C    0.18816   0.43655   0.46836   1.000
    C6      C    0.96837   0.53124   0.22019   1.000
    C7      C    0.53203   0.75201   0.56302   1.000
    C8      C    0.86754   0.51857   0.92910   1.000
    C9      C    0.01543   0.69065   0.01330   1.000
    C10     C    0.16380   0.76111   0.99513   1.000
    C11     C    0.21035   0.46438   0.80715   1.000
    C12     C    0.26144   0.35703   0.82615   1.000
    C13     C    0.99854   0.17692   0.84791   1.000
    C14     C    0.95628   0.29367   0.82409   1.000
    C15     C    0.31732   0.27244   0.91566   1.000
    C16     C    0.23732   0.21478   0.79344   1.000
    C17     C    0.63297   0.56191   0.65127   1.000
    C18     C    0.48523   0.49840   0.67543   1.000
    C19     C    0.33650   0.33176   0.59720   1.000
    C20     C    0.28935   0.09662   0.25381   1.000
    C21     C    0.23879   0.06456   0.09570   1.000
    C22     C    0.50221   0.34943   0.17910   1.000
    C23     C    0.54395   0.36781   0.33785   1.000
    C24     C    0.18356   0.09827   0.95567   1.000
    C25     C    0.26351   0.05596   0.97794   1.000
    C26     C    0.58996   0.07124   0.43873   1.000
    C27     C    0.67819   0.98759   0.50220   1.000
    C28     C    0.76640   0.00571   0.66838   1.000
    C29     C    0.65617   0.19225   0.90281   1.000
    C30     C    0.53090   0.17471   0.93578   1.000
    C31     C    0.32949   0.15319   0.65201   1.000
    C32     C    0.46901   0.17559   0.63262   1.000
    C33     C    0.35720   0.08599   0.90277   1.000
    C34     C    0.42220   0.20856   0.94526   1.000
    C35     C    0.91006   0.34836   0.48145   1.000
    C36     C    0.82234   0.32397   0.30983   1.000
    C37     C    0.73429   0.40218   0.23972   1.000
    C38     C    0.84411   0.74691   0.53653   1.000
    C39     C    0.96985   0.90523   0.64449   1.000
    C40     C    0.17069   0.82194   0.82362   1.000
    C41     C    0.03075   0.66299   0.70630   1.000
    C42     C    0.14361   0.04584   0.72956   1.000
    C43     C    0.07869   0.02321   0.78707   1.000
    C44     C    0.41006   0.92872   0.56126   1.000
    C45     C    0.32186   0.01237   0.49779   1.000
    C46     C    0.23365   0.99426   0.33161   1.000
    C47     C    0.34386   0.80770   0.09718   1.000
    C48     C    0.46914   0.82526   0.06422   1.000
    C49     C    0.67055   0.84679   0.34799   1.000
    C50     C    0.53102   0.82437   0.36738   1.000
    C51     C    0.64283   0.91398   0.09721   1.000
    C52     C    0.57784   0.79140   0.05475   1.000
    C53     C    0.08997   0.65160   0.51854   1.000
    C54     C    0.17769   0.67598   0.69010   1.000
    C55     C    0.26573   0.59777   0.76027   1.000
    C56     C    0.15592   0.25306   0.46340   1.000
    C57     C    0.03020   0.09474   0.35551   1.000
    C58     C    0.82934   0.17801   0.17637   1.000
    C59     C    0.96928   0.33697   0.29368   1.000
    C60     C    0.85642   0.95413   0.27044   1.000
    C61     C    0.92135   0.97675   0.21293   1.000
    C62     C    0.13249   0.48138   0.07080   1.000
    C63     C    0.98461   0.30931   0.98669   1.000
    C64     C    0.83623   0.23884   0.00486   1.000
    C65     C    0.78967   0.53557   0.19283   1.000
    C66     C    0.73859   0.64292   0.17385   1.000
    C67     C    0.00150   0.82305   0.15210   1.000
    C68     C    0.04375   0.70629   0.17591   1.000
    C69     C    0.68272   0.72752   0.08434   1.000
    C70     C    0.76271   0.78518   0.20656   1.000
    C71     C    0.36707   0.43805   0.34872   1.000
    C72     C    0.51482   0.50157   0.32456   1.000
    C73     C    0.66354   0.66821   0.40271   1.000
    C74     C    0.71069   0.90335   0.74619   1.000
    C75     C    0.76125   0.93540   0.90430   1.000
    C76     C    0.49782   0.65053   0.82083   1.000
    C77     C    0.45608   0.63215   0.66215   1.000
    C78     C    0.81649   0.90168   0.04433   1.000
    C79     C    0.73653   0.94400   0.02206   1.000
    C80     C    0.86024   0.39863   0.81551   1.000
    C81     C    0.94026   0.50115   0.86886   1.000
    C82     C    0.93443   0.55289   0.92336   1.000
    C83     C    0.01582   0.64745   0.96922   1.000
    C84     C    0.09975   0.68771   0.95933   1.000
    C85     C    0.10063   0.63173   0.90384   1.000
    C86     C    0.18647   0.66568   0.88601   1.000
    C87     C    0.16538   0.40062   0.81709   1.000
    C88     C    0.19454   0.33939   0.82860   1.000
    C89     C    0.13458   0.25753   0.84045   1.000
    C90     C    0.04768   0.24024   0.83980   1.000
    C91     C    0.02426   0.30486   0.82729   1.000
    C92     C    0.24487   0.20815   0.85818   1.000
    C93     C    0.63977   0.45531   0.53845   1.000
    C94     C    0.55988   0.42877   0.56095   1.000
    C95     C    0.56594   0.48925   0.61862   1.000
    C96     C    0.48461   0.45377   0.63170   1.000
    C97     C    0.40049   0.35990   0.58793   1.000
    C98     C    0.39939   0.30340   0.53100   1.000
    C99     C    0.31337   0.19965   0.47902   1.000
    C100    C    0.33457   0.15157   0.23525   1.000
    C101    C    0.30572   0.13396   0.14505   1.000
    C102    C    0.36598   0.20582   0.12343   1.000
    C103    C    0.45285   0.29211   0.19313   1.000
    C104    C    0.47598   0.30299   0.28097   1.000
    C105    C    0.25601   0.11326   0.96389   1.000
    C106    C    0.58266   0.18401   0.54480   1.000
    C107    C    0.63204   0.13100   0.57140   1.000
    C108    C    0.62980   0.07692   0.51119   1.000
    C109    C    0.67871   0.03140   0.54663   1.000
    C110    C    0.72859   0.04123   0.64020   1.000
    C111    C    0.72756   0.09626   0.69650   1.000
    C112    C    0.77908   0.11405   0.79994   1.000
    C113    C    0.58283   0.18273   0.84831   1.000
    C114    C    0.51068   0.17204   0.86645   1.000
    C115    C    0.41745   0.16074   0.79517   1.000
    C116    C    0.40064   0.16101   0.70890   1.000
    C117    C    0.47714   0.17269   0.69745   1.000
    C118    C    0.35076   0.14367   0.88807   1.000
    C119    C    0.91696   0.46168   0.60128   1.000
    C120    C    0.86782   0.43899   0.49902   1.000
    C121    C    0.87028   0.38108   0.44730   1.000
    C122    C    0.82165   0.36782   0.35299   1.000
    C123    C    0.77185   0.41168   0.31294   1.000
    C124    C    0.77265   0.46887   0.36888   1.000
    C125    C    0.72120   0.52093   0.33513   1.000
    C126    C    0.91745   0.76556   0.60023   1.000
    C127    C    0.98982   0.85589   0.66183   1.000
    C128    C    0.08304   0.87761   0.74361   1.000
    C129    C    0.09958   0.80788   0.76041   1.000
    C130    C    0.02284   0.71991   0.69548   1.000
    C131    C    0.15008   0.03743   0.79300   1.000
    C132    C    0.25044   0.12563   0.87595   1.000
    C133    C    0.41735   0.81592   0.45510   1.000
    C134    C    0.36799   0.86895   0.42856   1.000
    C135    C    0.37021   0.92302   0.48879   1.000
    C136    C    0.32134   0.96857   0.45336   1.000
    C137    C    0.27144   0.95872   0.35975   1.000
    C138    C    0.27249   0.90371   0.30349   1.000
    C139    C    0.22096   0.88591   0.20004   1.000
    C140    C    0.41720   0.81723   0.15168   1.000
    C141    C    0.48935   0.82793   0.13355   1.000
    C142    C    0.58259   0.83924   0.20483   1.000
    C143    C    0.59940   0.83896   0.29110   1.000
    C144    C    0.52289   0.82727   0.30254   1.000
    C145    C    0.64928   0.85630   0.11193   1.000
    C146    C    0.08308   0.53829   0.39871   1.000
    C147    C    0.13220   0.56097   0.50097   1.000
    C148    C    0.12977   0.61889   0.55270   1.000
    C149    C    0.17837   0.63213   0.64700   1.000
    C150    C    0.22819   0.58829   0.68705   1.000
    C151    C    0.22738   0.53109   0.63110   1.000
    C152    C    0.27884   0.47903   0.66485   1.000
    C153    C    0.08259   0.23441   0.39976   1.000
    C154    C    0.00000   0.14408   0.33817   1.000
    C155    C    0.91700   0.12235   0.25639   1.000
    C156    C    0.90046   0.19208   0.23958   1.000
    C157    C    0.97719   0.28006   0.30451   1.000
    C158    C    0.84996   0.96253   0.20641   1.000
    C159    C    0.13980   0.60132   0.18448   1.000
    C160    C    0.05978   0.49880   0.13114   1.000
    C161    C    0.06560   0.44706   0.07663   1.000
    C162    C    0.98422   0.35251   0.03078   1.000
    C163    C    0.90027   0.31225   0.04066   1.000
    C164    C    0.89939   0.36823   0.09614   1.000
    C165    C    0.81356   0.33428   0.11397   1.000
    C166    C    0.83465   0.59934   0.18290   1.000
    C167    C    0.80550   0.66057   0.17140   1.000
    C168    C    0.86546   0.74243   0.15956   1.000
    C169    C    0.95236   0.75972   0.16021   1.000
    C170    C    0.97578   0.69510   0.17271   1.000
    C171    C    0.75517   0.79181   0.14182   1.000
    C172    C    0.36027   0.54465   0.46155   1.000
    C173    C    0.44015   0.57120   0.43904   1.000
    C174    C    0.43410   0.51072   0.38139   1.000
    C175    C    0.51543   0.54620   0.36824   1.000
    C176    C    0.59956   0.64006   0.41207   1.000
    C177    C    0.60064   0.69657   0.46899   1.000
    C178    C    0.68666   0.80031   0.52090   1.000
    C179    C    0.66546   0.84839   0.76475   1.000
    C180    C    0.69432   0.86601   0.85495   1.000
    C181    C    0.63406   0.79414   0.87657   1.000
    C182    C    0.54719   0.70786   0.80687   1.000
    C183    C    0.52406   0.69697   0.71903   1.000
    C184    C    0.74403   0.88669   0.03611   1.000
    C185    C    0.74960   0.87433   0.12400   1.000
    C186    C    0.08207   0.38473   0.81641   1.000
    C187    C    0.02199   0.54099   0.86085   1.000
    C188    C    0.41789   0.23424   0.30277   1.000
    C189    C    0.47796   0.33896   0.51892   1.000
    C190    C    0.56747   0.18312   0.76567   1.000
    C191    C    0.67957   0.13890   0.66096   1.000
    C192    C    0.93255   0.69802   0.61571   1.000
    C193    C    0.82035   0.48111   0.45939   1.000
    C194    C    0.43256   0.81684   0.23432   1.000
    C195    C    0.32048   0.86107   0.33903   1.000
    C196    C    0.06748   0.30195   0.38428   1.000
    C197    C    0.17967   0.51885   0.54060   1.000
    C198    C    0.91797   0.61523   0.18358   1.000
    C199    C    0.97804   0.45897   0.13913   1.000
    C200    C    0.58214   0.76573   0.69723   1.000
    C201    C    0.52207   0.66100   0.48100   1.000
    C202    C    0.87549   0.36204   0.76775   1.000
    C203    C    0.78286   0.35548   0.82375   1.000
    C204    C    0.17235   0.60237   0.83261   1.000
    C205    C    0.26079   0.74977   0.92238   1.000
    C206    C    0.15334   0.19137   0.85219   1.000
    C207    C    0.62443   0.39213   0.48668   1.000
    C208    C    0.71713   0.54100   0.57255   1.000
    C209    C    0.32727   0.16025   0.42973   1.000
    C210    C    0.23916   0.16174   0.48883   1.000
    C211    C    0.34755   0.19882   0.03872   1.000
    C212    C    0.59359   0.23160   0.60784   1.000
    C213    C    0.53141   0.17573   0.45947   1.000
    C214    C    0.76852   0.16688   0.83910   1.000
    C215    C    0.82727   0.07823   0.83780   1.000
    C216    C    0.34019   0.14986   0.80271   1.000
    C217    C    0.90581   0.51361   0.63782   1.000
    C218    C    0.96831   0.42755   0.64431   1.000
    C219    C    0.73142   0.57048   0.39830   1.000
    C220    C    0.67336   0.51093   0.25124   1.000
    C221    C    0.16052   0.96244   0.81010   1.000
    C222    C    0.40643   0.76834   0.39214   1.000
    C223    C    0.46862   0.82422   0.54052   1.000
    C224    C    0.23151   0.83308   0.16085   1.000
    C225    C    0.17277   0.92173   0.16213   1.000
    C226    C    0.65986   0.85013   0.19730   1.000
    C227    C    0.09423   0.48636   0.36217   1.000
    C228    C    0.03172   0.57241   0.35568   1.000
    C229    C    0.26861   0.42948   0.60160   1.000
    C230    C    0.32666   0.48902   0.74874   1.000
    C231    C    0.83952   0.03753   0.18990   1.000
    C232    C    0.12454   0.63791   0.23223   1.000
    C233    C    0.21716   0.64448   0.17623   1.000
    C234    C    0.82769   0.39758   0.16740   1.000
    C235    C    0.73925   0.25018   0.07761   1.000
    C236    C    0.84671   0.80859   0.14782   1.000
    C237    C    0.37561   0.60783   0.51332   1.000
    C238    C    0.28290   0.45896   0.42743   1.000
    C239    C    0.67276   0.83972   0.57027   1.000
    C240    C    0.76088   0.83823   0.51116   1.000
    C241    C    0.65249   0.80114   0.96128   1.000
    O242    O    0.86825   0.27555   0.02276   1.000
    O243    O    0.01562   0.66905   0.99126   1.000
    O244    O    0.74028   0.91535   0.02909   1.000
    O245    O    0.94224   0.33238   0.03572   1.000
    O246    O    0.02491   0.39978   0.05371   1.000
    O247    O    0.98441   0.33091   0.00874   1.000
    O248    O    0.78026   0.89419   0.04022   1.000
    O249    O    0.74682   0.88051   0.08006   1.000
    O250    O    0.69826   0.84392   0.99870   1.000
    O251    O    0.35676   0.20232   0.08108   1.000
    O252    O    0.30178   0.15604   0.00131   1.000
    O253    O    0.89983   0.34024   0.06840   1.000
    O254    O    0.61356   0.82385   0.08334   1.000
    O255    O    0.47925   0.82660   0.09889   1.000
    O256    O    0.09905   0.46422   0.07372   1.000
    O257    O    0.06269   0.47293   0.10389   1.000
    O258    O    0.77640   0.29223   0.09579   1.000
    O259    O    0.71894   0.75967   0.11308   1.000
    O260    O    0.27226   0.09926   0.12038   1.000
    O261    O    0.85648   0.35125   0.10506   1.000
    O262    O    0.93871   0.41360   0.11764   1.000
    O263    O    0.38053   0.81246   0.12443   1.000
    O264    O    0.64606   0.88514   0.10457   1.000
    O265    O    0.69944   0.86531   0.11797   1.000
    O266    O    0.65457   0.85321   0.15462   1.000
    O267    O    0.82062   0.36593   0.14069   1.000
    O268    O    0.33585   0.16989   0.13424   1.000
    O269    O    0.40941   0.24896   0.15828   1.000
    O270    O    0.75238   0.83307   0.13291   1.000
    O271    O    0.79978   0.91843   0.16521   1.000
    O272    O    0.01891   0.47889   0.13514   1.000
    O273    O    0.09979   0.55006   0.15781   1.000
    O274    O    0.45328   0.82258   0.14262   1.000
    O275    O    0.53597   0.83358   0.16919   1.000
    O276    O    0.97320   0.49511   0.17966   1.000
    O277    O    0.80094   0.80020   0.14482   1.000
    O278    O    0.75894   0.78850   0.17419   1.000
    O279    O    0.32015   0.14276   0.19015   1.000
    O280    O    0.85608   0.77551   0.15369   1.000
    O281    O    0.42488   0.81703   0.19300   1.000
    O282    O    0.97693   0.79138   0.15616   1.000
    O283    O    0.90891   0.75107   0.15989   1.000
    O284    O    0.83548   0.70150   0.16548   1.000
    O285    O    0.96407   0.72741   0.16646   1.000
    O286    O    0.22623   0.85949   0.18045   1.000
    O287    O    0.27183   0.80671   0.20464   1.000
    O288    O    0.19687   0.90382   0.18109   1.000
    O289    O    0.89803   0.46441   0.19380   1.000
    O290    O    0.77204   0.65175   0.17263   1.000
    O291    O    0.82007   0.62995   0.17715   1.000
    O292    O    0.00976   0.70069   0.17431   1.000
    O293    O    0.94687   0.65517   0.17815   1.000
    O294    O    0.17848   0.62290   0.18036   1.000
    O295    O    0.26465   0.71241   0.21233   1.000
    O296    O    0.86490   0.18505   0.20798   1.000
    O297    O    0.47753   0.32077   0.18612   1.000
    O298    O    0.87631   0.60728   0.18324   1.000
    O299    O    0.81216   0.56745   0.18787   1.000
    O300    O    0.94317   0.57324   0.20189   1.000
    O301    O    0.13217   0.61962   0.20836   1.000
    O302    O    0.84474   0.00003   0.19816   1.000
    O303    O    0.87826   0.07994   0.22315   1.000
    O304    O    0.46441   0.29755   0.23705   1.000
    O305    O    0.62122   0.84468   0.20107   1.000
    O306    O    0.24673   0.89481   0.25177   1.000
    O307    O    0.59099   0.83910   0.24797   1.000
    O308    O    0.88566   0.96964   0.20967   1.000
    O309    O    0.85319   0.95833   0.23843   1.000
    O310    O    0.00005   0.55183   0.28794   1.000
    O311    O    0.37235   0.79859   0.24138   1.000
    O312    O    0.47772   0.82205   0.26843   1.000
    O313    O    0.31196   0.12409   0.24453   1.000
    O314    O    0.37623   0.19290   0.26901   1.000
    O315    O    0.90873   0.15722   0.24799   1.000
    O316    O    0.93883   0.23607   0.27205   1.000
    O317    O    0.75307   0.40693   0.27633   1.000
    O318    O    0.31631   0.82071   0.29373   1.000
    O319    O    0.69728   0.51593   0.29319   1.000
    O320    O    0.95850   0.13322   0.29728   1.000
    O321    O    0.44693   0.26862   0.29187   1.000
    O322    O    0.50996   0.33540   0.30941   1.000
    O323    O    0.56115   0.83312   0.29682   1.000
    O324    O    0.63498   0.84288   0.31955   1.000
    O325    O    0.97324   0.30852   0.29910   1.000
    O326    O    0.52696   0.82582   0.33496   1.000
    O327    O    0.44294   0.24109   0.36984   1.000
    O328    O    0.29649   0.88239   0.32126   1.000
    O329    O    0.27196   0.93122   0.33162   1.000
    O330    O    0.02234   0.29100   0.34440   1.000
    O331    O    0.82199   0.34589   0.33141   1.000
    O332    O    0.79675   0.38975   0.33297   1.000
    O333    O    0.77225   0.44028   0.34091   1.000
    O334    O    0.51512   0.52388   0.34640   1.000
    O335    O    0.25254   0.97649   0.34568   1.000
    O336    O    0.74692   0.49490   0.35201   1.000
    O337    O    0.72631   0.54570   0.36672   1.000
    O338    O    0.01510   0.11941   0.34684   1.000
    O339    O    0.04129   0.18924   0.36897   1.000
    O340    O    0.34424   0.86501   0.38380   1.000
    O341    O    0.40059   0.47438   0.36506   1.000
    O342    O    0.84596   0.37445   0.40015   1.000
    O343    O    0.05740   0.55535   0.37720   1.000
    O344    O    0.29639   0.96365   0.40656   1.000
    O345    O    0.08866   0.51232   0.38044   1.000
    O346    O    0.47477   0.52846   0.37482   1.000
    O347    O    0.55749   0.59313   0.39016   1.000
    O348    O    0.79650   0.47499   0.41414   1.000
    O349    O    0.43713   0.54096   0.41022   1.000
    O350    O    0.07503   0.26818   0.39202   1.000
    O351    O    0.12782   0.36925   0.42632   1.000
    O352    O    0.41189   0.79213   0.42362   1.000
    O353    O    0.77165   0.56695   0.46496   1.000
    O354    O    0.10764   0.54963   0.44984   1.000
    O355    O    0.11926   0.24374   0.43158   1.000
    O356    O    0.63155   0.65414   0.40739   1.000
    O357    O    0.60010   0.66832   0.44053   1.000
    O358    O    0.32158   0.50180   0.44449   1.000
    O359    O    0.23553   0.44776   0.44790   1.000
    O360    O    0.39267   0.84244   0.44183   1.000
    O361    O    0.36910   0.89598   0.45868   1.000
    O362    O    0.39764   0.20410   0.43332   1.000
    O363    O    0.32032   0.17995   0.45438   1.000
    O364    O    0.49970   0.21184   0.44819   1.000
    O365    O    0.47298   0.29346   0.47791   1.000
    O366    O    0.60988   0.07408   0.47496   1.000
    O367    O    0.40021   0.55792   0.45030   1.000
    O368    O    0.48111   0.61610   0.46002   1.000
    O369    O    0.89017   0.36472   0.46438   1.000
    O370    O    0.86905   0.41004   0.47316   1.000
    O371    O    0.34577   0.94579   0.47108   1.000
    O372    O    0.32160   0.99047   0.47558   1.000
    O373    O    0.44298   0.82007   0.49781   1.000
    O374    O    0.84409   0.46005   0.47921   1.000
    O375    O    0.81611   0.52226   0.49551   1.000
    O376    O    0.55703   0.17987   0.50214   1.000
    O377    O    0.36794   0.57624   0.48744   1.000
    O378    O    0.18391   0.47770   0.50448   1.000
    O379    O    0.22838   0.43302   0.53498   1.000
    O380    O    0.56135   0.67879   0.47500   1.000
    O381    O    0.64365   0.74844   0.49495   1.000
    O382    O    0.27626   0.18070   0.48393   1.000
    O383    O    0.35638   0.25153   0.50501   1.000
    O384    O    0.52705   0.70651   0.52201   1.000
    O385    O    0.63210   0.42372   0.51257   1.000
    O386    O    0.39014   0.92587   0.52503   1.000
    O387    O    0.89239   0.45033   0.55015   1.000
    O388    O    0.15594   0.53991   0.52079   1.000
    O389    O    0.13099   0.58993   0.52684   1.000
    O390    O    0.67845   0.00950   0.52442   1.000
    O391    O    0.72377   0.81927   0.51603   1.000
    O392    O    0.65425   0.05416   0.52891   1.000
    O393    O    0.63092   0.10396   0.54130   1.000
    O394    O    0.10987   0.63524   0.53562   1.000
    O395    O    0.43868   0.32118   0.52496   1.000
    O396    O    0.51892   0.38386   0.53994   1.000
    O397    O    0.67971   0.82001   0.54559   1.000
    O398    O    0.39994   0.33165   0.55947   1.000
    O399    O    0.76450   0.55221   0.55209   1.000
    O400    O    0.87221   0.63072   0.57367   1.000
    O401    O    0.88078   0.75623   0.56838   1.000
    O402    O    0.59983   0.44204   0.54970   1.000
    O403    O    0.67845   0.49815   0.55550   1.000
    O404    O    0.50033   0.78812   0.55177   1.000
    O405    O    0.20353   0.52497   0.58585   1.000
    O406    O    0.60735   0.15751   0.55810   1.000
    O407    O    0.58812   0.20781   0.57632   1.000
    O408    O    0.70365   0.03632   0.59342   1.000
    O409    O    0.15407   0.62551   0.59985   1.000
    O410    O    0.56291   0.45901   0.58979   1.000
    O411    O    0.60240   0.79586   0.56665   1.000
    O412    O    0.55709   0.75887   0.63013   1.000
    O413    O    0.65580   0.13495   0.61618   1.000
    O414    O    0.36849   0.34583   0.59257   1.000
    O415    O    0.44255   0.40684   0.60982   1.000
    O416    O    0.92500   0.73179   0.60797   1.000
    O417    O    0.95363   0.81072   0.63103   1.000
    O418    O    0.91138   0.48765   0.61955   1.000
    O419    O    0.94263   0.44462   0.62280   1.000
    O420    O    0.27373   0.45426   0.63323   1.000
    O421    O    0.97769   0.70896   0.65560   1.000
    O422    O    0.52528   0.47151   0.62516   1.000
    O423    O    0.59946   0.52558   0.63495   1.000
    O424    O    0.25311   0.50506   0.64798   1.000
    O425    O    0.22778   0.55969   0.65908   1.000
    O426    O    0.48492   0.47609   0.65357   1.000
    O427    O    0.47308   0.17414   0.66504   1.000
    O428    O    0.74749   0.02347   0.65429   1.000
    O429    O    0.72808   0.06875   0.66835   1.000
    O430    O    0.99999   0.44813   0.71206   1.000
    O431    O    0.97983   0.88056   0.65316   1.000
    O432    O    0.20328   0.61021   0.66703   1.000
    O433    O    0.17803   0.65406   0.66855   1.000
    O434    O    0.36506   0.15710   0.68046   1.000
    O435    O    0.70357   0.11758   0.67873   1.000
    O436    O    0.68373   0.17925   0.70626   1.000
    O437    O    0.03643   0.86675   0.70272   1.000
    O438    O    0.49007   0.66456   0.69059   1.000
    O439    O    0.30275   0.48403   0.70680   1.000
    O440    O    0.24696   0.59303   0.72366   1.000
    O441    O    0.02679   0.69145   0.70089   1.000
    O442    O    0.06121   0.76389   0.72795   1.000
    O443    O    0.75332   0.10516   0.74822   1.000
    O444    O    0.55310   0.73135   0.70813   1.000
    O445    O    0.62380   0.80706   0.73099   1.000
    O446    O    0.43889   0.16685   0.70318   1.000
    O447    O    0.52231   0.17790   0.73156   1.000
    O448    O    0.40904   0.16087   0.75204   1.000
    O449    O    0.53562   0.70241   0.76295   1.000
    O450    O    0.14685   0.04164   0.76128   1.000
    O451    O    0.09131   0.84275   0.75201   1.000
    O452    O    0.12178   0.92002   0.77686   1.000
    O453    O    0.68808   0.87587   0.75547   1.000
    O454    O    0.62768   0.20136   0.75862   1.000
    O455    O    0.73538   0.28754   0.78766   1.000
    O456    O    0.72820   0.19324   0.79533   1.000
    O457    O    0.13513   0.81491   0.79202   1.000
    O458    O    0.67989   0.85720   0.80985   1.000
    O459    O    0.57515   0.18292   0.80699   1.000
    O460    O    0.86786   0.38034   0.79163   1.000
    O461    O    0.05686   0.42672   0.79811   1.000
    O462    O    0.10201   0.53554   0.80621   1.000
    O463    O    0.02683   0.50485   0.82033   1.000
    O464    O    0.11438   0.03032   0.79004   1.000
    O465    O    0.15530   0.99994   0.80155   1.000
    O466    O    0.20026   0.08153   0.83448   1.000
    O467    O    0.24109   0.21146   0.82581   1.000
    O468    O    0.37882   0.15530   0.79894   1.000
    O469    O    0.46407   0.16639   0.83081   1.000
    O470    O    0.80317   0.09614   0.81887   1.000
    O471    O    0.77380   0.14046   0.81952   1.000
    O472    O    0.34547   0.14677   0.84539   1.000
    O473    O    0.52250   0.67919   0.81385   1.000
    O474    O    0.59062   0.75100   0.84172   1.000
    O475    O    0.18787   0.43250   0.81212   1.000
    O476    O    0.82155   0.37706   0.81963   1.000
    O477    O    0.90025   0.44989   0.84219   1.000
    O478    O    0.12372   0.39267   0.81675   1.000
    O479    O    0.05316   0.34479   0.82185   1.000
    O480    O    0.17996   0.37000   0.82285   1.000
    O481    O    0.99027   0.29926   0.82569   1.000
    O482    O    0.22799   0.34821   0.82738   1.000
    O483    O    0.03597   0.27255   0.83355   1.000
    O484    O    0.16456   0.29846   0.83453   1.000
    O485    O    0.17941   0.63403   0.85931   1.000
    O486    O    0.09113   0.24889   0.84013   1.000
    O487    O    0.02311   0.20858   0.84386   1.000
    O488    O    0.14396   0.22445   0.84632   1.000
    O489    O    0.54676   0.17739   0.85738   1.000
    O490    O    0.61950   0.18749   0.87556   1.000
    O491    O    0.19910   0.19976   0.85519   1.000
    O492    O    0.66419   0.83008   0.86576   1.000
    O493    O    0.72778   0.90070   0.87963   1.000
    O494    O    0.24766   0.16689   0.86707   1.000
    O495    O    0.28110   0.24030   0.88692   1.000
    O496    O    0.98113   0.52107   0.86486   1.000
    O497    O    0.06131   0.58636   0.88235   1.000
    O498    O    0.52079   0.17337   0.90112   1.000
    O499    O    0.93734   0.52702   0.89611   1.000
    O500    O    0.30060   0.13465   0.88201   1.000
    O501    O    0.25323   0.11945   0.91992   1.000
    O502    O    0.64327   0.79764   0.91893   1.000
    O503    O    0.14355   0.64871   0.89493   1.000
    O504    O    0.22363   0.70773   0.90420   1.000
    O505    O    0.35398   0.11483   0.89542   1.000
    O506    O    0.38648   0.17611   0.91667   1.000
    O507    O    0.10019   0.65972   0.93159   1.000
    O508    O    0.90098   0.53573   0.92623   1.000
    O509    O    0.97512   0.60017   0.94629   1.000
    O510    O    0.21978   0.10577   0.95978   1.000
    O511    O    0.05779   0.66758   0.96428   1.000
    O512    O    0.13178   0.72441   0.97723   1.000
    O513    O    0.25976   0.08461   0.97092   1.000
loop_
    _geom_bond_atom_site_label_1
    _geom_bond_atom_site_label_2
    _geom_bond_distance
    _geom_bond_site_symmetry_2
    _ccdc_geom_bond_type
    C64    O242      0.54371      .   S
    C163   O242      0.54371      .   S
    C9     O243      0.54468  1_554   S
    C83    O243      0.54468      .   S
    C79    O244      0.55003      .   S
    C184   O244      0.55003      .   S
    C162   O245      0.69823      .   S
    C163   O245      0.69823      .   S
    C162   O246      0.69867  1_655   S
    C161   O246      0.69867      .   S
    C162   O247      0.54472      .   S
    C63    O247      0.54472  1_556   S
    C184   O248      0.55014      .   S
    C78    O248      0.55014      .   S
    C184   O249      0.76671      .   S
    C185   O249      0.76671      .   S
    C184   O250      0.71954  1_554   S
    C241   O250      0.71954      .   S
    C211   O251      0.67822      .   S
    C102   O251      0.67822      .   S
    C211   O252      0.71955      .   S
    C105   O252      0.71955  1_556   S
    C163   O253      0.69790      .   S
    C164   O253      0.69790      .   S
    C52    O254      0.55001      .   S
    C145   O254      0.55001      .   S
    C48    O255      0.54385      .   S
    C141   O255      0.54385      .   S
    C62    O256      0.54475      .   S
    C161   O256      0.54475      .   S
    C161   O257      0.69746      .   S
    C160   O257      0.69746      .   S
    C235   O258      0.62365      .   S
    C165   O258      0.62365      .   S
    C69    O259      0.55014      .   S
    C171   O259      0.55014      .   S
    C21    O260      0.54386      .   S
    C101   O260      0.54386      .   S
    C164   O261      0.76401      .   S
    C165   O261      0.76401      .   S
    C164   O262      0.67080      .   S
    C199   O262      0.67080      .   S
    C47    O263      0.54447      .   S
    C140   O263      0.54447      .   S
    C51    O264      0.55011      .   S
    C145   O264      0.55011      .   S
    C145   O265      0.76748      .   S
    C185   O265      0.76748      .   S
    C145   O266      0.71968      .   S
    C226   O266      0.71968      .   S
    C165   O267      0.64637      .   S
    C234   O267      0.64637      .   S
    C102   O268      0.70073      .   S
    C101   O268      0.70073      .   S
    C102   O269      0.70179      .   S
    C103   O269      0.70179      .   S
    C185   O270      0.76734      .   S
    C171   O270      0.76734      .   S
    C185   O271      0.76748      .   S
    C158   O271      0.76748      .   S
    C160   O272      0.67052      .   S
    C199   O272      0.67052  1_655   S
    C160   O273      0.75410      .   S
    C159   O273      0.75410      .   S
    C141   O274      0.69468      .   S
    C140   O274      0.69468      .   S
    C141   O275      0.70069      .   S
    C142   O275      0.70069      .   S
    C199   O276      1.01597      .   S
    C6     O276      1.01597      .   S
    C171   O277      0.71962      .   S
    C236   O277      0.71962      .   S
    C171   O278      0.55006      .   S
    C70    O278      0.55006      .   S
    C101   O279      0.69467      .   S
    C100   O279      0.69467      .   S
    C236   O280      0.67824      .   S
    C168   O280      0.67824      .   S
    C140   O281      0.67460      .   S
    C194   O281      0.67460      .   S
    C67    O282      0.54531  1_455   S
    C169   O282      0.54531      .   S
    C168   O283      0.70178      .   S
    C169   O283      0.70178      .   S
    C168   O284      0.70072      .   S
    C167   O284      0.70072      .   S
    C169   O285      0.69033      .   S
    C170   O285      0.69033      .   S
    C224   O286      0.64631      .   S
    C139   O286      0.64631      .   S
    C224   O287      1.05701      .   S
    C4     O287      1.05701      .   S
    C225   O288      0.62369      .   S
    C139   O288      0.62369      .   S
    C234   O289      1.05691      .   S
    C6     O289      1.05691      .   S
    C167   O290      0.54384      .   S
    C66    O290      0.54384      .   S
    C167   O291      0.69470      .   S
    C166   O291      0.69470      .   S
    C170   O292      0.54386  1_655   S
    C68    O292      0.54386      .   S
    C170   O293      0.67862      .   S
    C198   O293      0.67862      .   S
    C233   O294      0.63993      .   S
    C159   O294      0.63993      .   S
    C233   O295      1.00362      .   S
    C4     O295      1.00362      .   S
    C58    O296      0.54534      .   S
    C156   O296      0.54534      .   S
    C22    O297      0.54575      .   S
    C103   O297      0.54575      .   S
    C166   O298      0.67457      .   S
    C198   O298      0.67457      .   S
    C166   O299      0.54446      .   S
    C65    O299      0.54446      .   S
    C198   O300      1.02179      .   S
    C6     O300      1.02179      .   S
    C159   O301      0.63016      .   S
    C232   O301      0.63016      .   S
    C231   O302      0.71971      .   S
    C158   O302      0.71971  1_565   S
    C231   O303      0.67825      .   S
    C155   O303      0.67825      .   S
    C103   O304      0.69030      .   S
    C104   O304      0.69030      .   S
    C226   O305      0.67814      .   S
    C142   O305      0.67814      .   S
    C139   O306      0.76402      .   S
    C138   O306      0.76402      .   S
    C142   O307      0.70184      .   S
    C143   O307      0.70184      .   S
    C158   O308      0.55004      .   S
    C61    O308      0.55004      .   S
    C158   O309      0.55007      .   S
    C60    O309      0.55007      .   S
    C6     O310      1.00379  1_655   S
    C228   O310      1.00379      .   S
    C194   O311      1.02164      .   S
    C4     O311      1.02164      .   S
    C194   O312      0.67868      .   S
    C144   O312      0.67868      .   S
    C100   O313      0.54445      .   S
    C20    O313      0.54445      .   S
    C100   O314      0.67460      .   S
    C188   O314      0.67460      .   S
    C156   O315      0.70180      .   S
    C155   O315      0.70180      .   S
    C156   O316      0.69033      .   S
    C157   O316      0.69033      .   S
    C37    O317      0.54368      .   S
    C123   O317      0.54368      .   S
    C4     O318      1.01581      .   S
    C195   O318      1.01581      .   S
    C220   O319      0.62367      .   S
    C125   O319      0.62367      .   S
    C155   O320      0.65722      .   S
    C154   O320      0.65722  1_455   S
    C104   O321      0.67866      .   S
    C188   O321      0.67866      .   S
    C104   O322      0.54407      .   S
    C23    O322      0.54407      .   S
    C143   O323      0.69033      .   S
    C144   O323      0.69033      .   S
    C143   O324      0.54534      .   S
    C49    O324      0.54534      .   S
    C59    O325      0.54407      .   S
    C157   O325      0.54407      .   S
    C144   O326      0.54411      .   S
    C50    O326      0.54411      .   S
    C188   O327      1.02124      .   S
    C1     O327      1.02124      .   S
    C138   O328      0.67079      .   S
    C195   O328      0.67079      .   S
    C138   O329      0.69790      .   S
    C137   O329      0.69790      .   S
    C157   O330      0.67857  1_655   S
    C196   O330      0.67857      .   S
    C36    O331      0.54483      .   S
    C122   O331      0.54483      .   S
    C123   O332      0.69821      .   S
    C122   O332      0.69821      .   S
    C123   O333      0.69790      .   S
    C124   O333      0.69790      .   S
    C72    O334      0.54482      .   S
    C175   O334      0.54482      .   S
    C46    O335      0.54370      .   S
    C137   O335      0.54370      .   S
    C125   O336      0.76402      .   S
    C124   O336      0.76402      .   S
    C125   O337      0.64575      .   S
    C219   O337      0.64575      .   S
    C154   O338      0.60085      .   S
    C57    O338      0.60085      .   S
    C154   O339      0.69742      .   S
    C153   O339      0.69742      .   S
    C195   O340      0.67068      .   S
    C134   O340      0.67068      .   S
    C71    O341      0.54431      .   S
    C174   O341      0.54431      .   S
    C122   O342      0.69873      .   S
    C121   O342      0.69873      .   S
    C228   O343      0.63989      .   S
    C146   O343      0.63989      .   S
    C137   O344      0.69822      .   S
    C136   O344      0.69822      .   S
    C227   O345      0.63021      .   S
    C146   O345      0.63021      .   S
    C175   O346      0.69873      .   S
    C174   O346      0.69873      .   S
    C175   O347      0.69824      .   S
    C176   O347      0.69824      .   S
    C124   O348      0.67082      .   S
    C193   O348      0.67082      .   S
    C174   O349      0.69748      .   S
    C173   O349      0.69748      .   S
    C196   O350      0.67460      .   S
    C153   O350      0.67460      .   S
    C196   O351      1.02178      .   S
    C5     O351      1.02178      .   S
    C222   O352      0.63024      .   S
    C133   O352      0.63024      .   S
    C219   O353      1.05742      .   S
    C3     O353      1.05742      .   S
    C146   O354      0.75411      .   S
    C147   O354      0.75411      .   S
    C153   O355      0.54423      .   S
    C56    O355      0.54423      .   S
    C73    O356      0.54373      .   S
    C176   O356      0.54373      .   S
    C176   O357      0.69791      .   S
    C177   O357      0.69791      .   S
    C238   O358      0.63991      .   S
    C172   O358      0.63991      .   S
    C238   O359      1.00367      .   S
    C5     O359      1.00367      .   S
    C134   O360      0.75409      .   S
    C133   O360      0.75409      .   S
    C134   O361      0.69751      .   S
    C135   O361      0.69751      .   S
    C209   O362      1.05677      .   S
    C1     O362      1.05677      .   S
    C209   O363      0.64639      .   S
    C99    O363      0.64639      .   S
    C1     O364      1.00369      .   S
    C213   O364      1.00369      .   S
    C1     O365      1.01641      .   S
    C189   O365      1.01641      .   S
    C26    O366      0.54430      .   S
    C108   O366      0.54430      .   S
    C173   O367      0.75402      .   S
    C172   O367      0.75402      .   S
    C173   O368      0.67071      .   S
    C201   O368      0.67071      .   S
    C121   O369      0.54430      .   S
    C35    O369      0.54430      .   S
    C121   O370      0.69749      .   S
    C120   O370      0.69749      .   S
    C136   O371      0.69869      .   S
    C135   O371      0.69869      .   S
    C136   O372      0.54493      .   S
    C45    O372      0.54493  1_545   S
    C133   O373      0.63989      .   S
    C223   O373      0.63989      .   S
    C193   O374      0.67071      .   S
    C120   O374      0.67071      .   S
    C193   O375      1.01600      .   S
    C3     O375      1.01600      .   S
    C213   O376      0.63925      .   S
    C106   O376      0.63925      .   S
    C172   O377      0.63018      .   S
    C237   O377      0.63018      .   S
    C5     O378      1.01601      .   S
    C197   O378      1.01601      .   S
    C5     O379      1.05689      .   S
    C229   O379      1.05689      .   S
    C177   O380      0.67039      .   S
    C201   O380      0.67039      .   S
    C177   O381      0.76397      .   S
    C178   O381      0.76397      .   S
    C99    O382      0.62360      .   S
    C210   O382      0.62360      .   S
    C99    O383      0.76404      .   S
    C98    O383      0.76404      .   S
    C201   O384      1.01636      .   S
    C7     O384      1.01636      .   S
    C207   O385      0.63020      .   S
    C93    O385      0.63020      .   S
    C135   O386      0.54434      .   S
    C44    O386      0.54434      .   S
    C120   O387      0.75409      .   S
    C119   O387      0.75409      .   S
    C147   O388      0.67071      .   S
    C197   O388      0.67071      .   S
    C147   O389      0.69752      .   S
    C148   O389      0.69752      .   S
    C27    O390      0.54493  1_565   S
    C109   O390      0.54493      .   S
    C240   O391      0.62318      .   S
    C178   O391      0.62318      .   S
    C108   O392      0.69868      .   S
    C109   O392      0.69868      .   S
    C108   O393      0.69735      .   S
    C107   O393      0.69735      .   S
    C53    O394      0.54432      .   S
    C148   O394      0.54432      .   S
    C189   O395      0.67079      .   S
    C98    O395      0.67079      .   S
    C189   O396      0.67071      .   S
    C94    O396      0.67071      .   S
    C178   O397      0.64694      .   S
    C239   O397      0.64694      .   S
    C98    O398      0.69791      .   S
    C97    O398      0.69791      .   S
    C3     O399      1.00366      .   S
    C208   O399      1.00366      .   S
    C3     O400      1.02179      .   S
    C192   O400      1.02179      .   S
    C38    O401      0.54447      .   S
    C126   O401      0.54447      .   S
    C93    O402      0.75400      .   S
    C94    O402      0.75400      .   S
    C93    O403      0.63991      .   S
    C208   O403      0.63991      .   S
    C223   O404      1.00371      .   S
    C7     O404      1.00371      .   S
    C197   O405      0.67074      .   S
    C151   O405      0.67074      .   S
    C106   O406      0.75410      .   S
    C107   O406      0.75410      .   S
    C106   O407      0.63080      .   S
    C212   O407      0.63080      .   S
    C109   O408      0.69794      .   S
    C110   O408      0.69794      .   S
    C148   O409      0.69870      .   S
    C149   O409      0.69870      .   S
    C94    O410      0.69753      .   S
    C95    O410      0.69753      .   S
    C7     O411      1.05640      .   S
    C239   O411      1.05640      .   S
    C7     O412      1.02190      .   S
    C200   O412      1.02190      .   S
    C107   O413      0.67087      .   S
    C191   O413      0.67087      .   S
    C97    O414      0.54327      .   S
    C19    O414      0.54327      .   S
    C97    O415      0.69823      .   S
    C96    O415      0.69823      .   S
    C126   O416      0.67461      .   S
    C192   O416      0.67461      .   S
    C126   O417      0.69473      .   S
    C127   O417      0.69473      .   S
    C119   O418      0.63020      .   S
    C217   O418      0.63020      .   S
    C119   O419      0.63989      .   S
    C218   O419      0.63989      .   S
    C229   O420      0.64629      .   S
    C152   O420      0.64629      .   S
    C192   O421      0.67857      .   S
    C130   O421      0.67857  1_455   S
    C95    O422      0.69840      .   S
    C96    O422      0.69840      .   S
    C95    O423      0.54431      .   S
    C17    O423      0.54431      .   S
    C151   O424      0.76403      .   S
    C152   O424      0.76403      .   S
    C151   O425      0.69793      .   S
    C150   O425      0.69793      .   S
    C96    O426      0.54514      .   S
    C18    O426      0.54514      .   S
    C32    O427      0.54401      .   S
    C117   O427      0.54401      .   S
    C110   O428      0.54375      .   S
    C28    O428      0.54375      .   S
    C110   O429      0.69811      .   S
    C111   O429      0.69811      .   S
    C218   O430      1.00379      .   S
    C0     O430      1.00379  1_455   S
    C39    O431      0.54372      .   S
    C127   O431      0.54372      .   S
    C149   O432      0.69821      .   S
    C150   O432      0.69821      .   S
    C149   O433      0.54443      .   S
    C54    O433      0.54443      .   S
    C31    O434      0.54534      .   S
    C116   O434      0.54534      .   S
    C191   O435      0.67080      .   S
    C111   O435      0.67080      .   S
    C191   O436      1.01581      .   S
    C2     O436      1.01581      .   S
    C127   O437      0.70072  1_655   S
    C128   O437      0.70072      .   S
    C77    O438      0.54406      .   S
    C183   O438      0.54406      .   S
    C152   O439      0.62370      .   S
    C230   O439      0.62370      .   S
    C150   O440      0.54371      .   S
    C55    O440      0.54371      .   S
    C130   O441      0.54407      .   S
    C41    O441      0.54407      .   S
    C130   O442      0.69032      .   S
    C129   O442      0.69032      .   S
    C111   O443      0.76397      .   S
    C112   O443      0.76397      .   S
    C200   O444      0.67867      .   S
    C183   O444      0.67867      .   S
    C200   O445      0.67460      .   S
    C179   O445      0.67460      .   S
    C117   O446      0.69037      .   S
    C116   O446      0.69037      .   S
    C117   O447      0.67869      .   S
    C190   O447      0.67869      .   S
    C116   O448      0.70183      .   S
    C115   O448      0.70183      .   S
    C183   O449      0.69029      .   S
    C182   O449      0.69029      .   S
    C42    O450      0.54496      .   S
    C131   O450      0.54496      .   S
    C128   O451      0.70178      .   S
    C129   O451      0.70178      .   S
    C128   O452      0.67824      .   S
    C221   O452      0.67824      .   S
    C74    O453      0.54445      .   S
    C179   O453      0.54445      .   S
    C2     O454      1.02167      .   S
    C190   O454      1.02167      .   S
    C2     O455      1.00361      .   S
    C203   O455      1.00361      .   S
    C2     O456      1.05688      .   S
    C214   O456      1.05688      .   S
    C129   O457      0.54535      .   S
    C40    O457      0.54535      .   S
    C179   O458      0.69467      .   S
    C180   O458      0.69467      .   S
    C190   O459      0.67459      .   S
    C113   O459      0.67459      .   S
    C202   O460      0.63016      .   S
    C80    O460      0.63016      .   S
    C0     O461      1.02176      .   S
    C186   O461      1.02176      .   S
    C0     O462      1.05691      .   S
    C204   O462      1.05691      .   S
    C0     O463      1.01593      .   S
    C187   O463      1.01593      .   S
    C43    O464      0.55247      .   S
    C131   O464      0.55247      .   S
    C131   O465      0.72051  1_545   S
    C221   O465      0.72051      .   S
    C131   O466      0.76924      .   S
    C132   O466      0.76924      .   S
    C16    O467      0.55003      .   S
    C92    O467      0.55003      .   S
    C115   O468      0.67816      .   S
    C216   O468      0.67816      .   S
    C115   O469      0.70071      .   S
    C114   O469      0.70071      .   S
    C112   O470      0.62360      .   S
    C215   O470      0.62360      .   S
    C112   O471      0.64616      .   S
    C214   O471      0.64616      .   S
    C216   O472      0.71964      .   S
    C118   O472      0.71964      .   S
    C182   O473      0.54537      .   S
    C76    O473      0.54537      .   S
    C182   O474      0.70179      .   S
    C181   O474      0.70179      .   S
    C11    O475      0.54448      .   S
    C87    O475      0.54448      .   S
    C80    O476      0.63995      .   S
    C203   O476      0.63995      .   S
    C80    O477      0.75410      .   S
    C81    O477      0.75410      .   S
    C186   O478      0.67458      .   S
    C87    O478      0.67458      .   S
    C186   O479      0.67863      .   S
    C91    O479      0.67863      .   S
    C87    O480      0.69470      .   S
    C88    O480      0.69470      .   S
    C14    O481      0.54387      .   S
    C91    O481      0.54387  1_455   S
    C12    O482      0.54384      .   S
    C88    O482      0.54384      .   S
    C91    O483      0.69033      .   S
    C90    O483      0.69033      .   S
    C88    O484      0.70074      .   S
    C89    O484      0.70074      .   S
    C204   O485      0.64633      .   S
    C86    O485      0.64633      .   S
    C90    O486      0.70178      .   S
    C89    O486      0.70178      .   S
    C90    O487      0.54530      .   S
    C13    O487      0.54530  1_655   S
    C89    O488      0.67824      .   S
    C206   O488      0.67824      .   S
    C113   O489      0.69473      .   S
    C114   O489      0.69473      .   S
    C113   O490      0.54448      .   S
    C29    O490      0.54448      .   S
    C206   O491      0.71962      .   S
    C92    O491      0.71962      .   S
    C180   O492      0.70073      .   S
    C181   O492      0.70073      .   S
    C180   O493      0.54386      .   S
    C75    O493      0.54386      .   S
    C92    O494      0.76727      .   S
    C132   O494      0.76727      .   S
    C92    O495      0.55014      .   S
    C15    O495      0.55014      .   S
    C187   O496      0.67055  1_455   S
    C81    O496      0.67055      .   S
    C187   O497      0.67081      .   S
    C85    O497      0.67081      .   S
    C114   O498      0.54384      .   S
    C30    O498      0.54384      .   S
    C81    O499      0.69745      .   S
    C82    O499      0.69745      .   S
    C132   O500      0.76726      .   S
    C118   O500      0.76726      .   S
    C132   O501      0.76715      .   S
    C105   O501      0.76715      .   S
    C181   O502      0.67822      .   S
    C241   O502      0.67822      .   S
    C86    O503      0.76403      .   S
    C85    O503      0.76403      .   S
    C86    O504      0.62365      .   S
    C205   O504      0.62365      .   S
    C118   O505      0.55011      .   S
    C33    O505      0.55011      .   S
    C118   O506      0.55001      .   S
    C34    O506      0.55001      .   S
    C85    O507      0.69791      .   S
    C84    O507      0.69791      .   S
    C82    O508      0.54424      .   S
    C8     O508      0.54424      .   S
    C82    O509      0.69868      .   S
    C83    O509      0.69868  1_455   S
    C24    O510      0.55013      .   S
    C105   O510      0.55013      .   S
    C84    O511      0.69822      .   S
    C83    O511      0.69822      .   S
    C84    O512      0.54371      .   S
    C10    O512      0.54371      .   S
    C105   O513      0.55002      .   S
    C25    O513      0.55002      .   S
