# CIF file generated by openbabel 2.4.90, see http://openbabel.sf.net
data_I
_chemical_name_common ''
_cell_length_a 17.236
_cell_length_b 16.946
_cell_length_c 17.853
_cell_angle_alpha 89.935
_cell_angle_beta 90.001
_cell_angle_gamma 89.182
_space_group_name_H-M_alt 'P 1'
_space_group_name_Hall 'P 1'
loop_
    _symmetry_equiv_pos_as_xyz
    x,y,z
loop_
    _atom_site_label
    _atom_site_type_symbol
    _atom_site_fract_x
    _atom_site_fract_y
    _atom_site_fract_z
    _atom_site_occupancy
    Zn0     Zn   0.76617   0.62000   0.37241   1.000
    Zn1     Zn   0.76299   0.38314   0.87221   1.000
    Zn2     Zn   0.26617   0.11977   0.12743   1.000
    Zn3     Zn   0.23702   0.61688   0.12777   1.000
    Zn4     Zn   0.73383   0.88025   0.87256   1.000
    Zn5     Zn   0.73696   0.11712   0.37208   1.000
    Zn6     Zn   0.23376   0.38005   0.62762   1.000
    Zn7     Zn   0.26287   0.88289   0.62700   1.000
