# CIF file generated by openbabel 2.4.90, see http://openbabel.sf.net
data_I
_chemical_name_common ''
_cell_length_a 17.236
_cell_length_b 16.946
_cell_length_c 17.853
_cell_angle_alpha 89.935
_cell_angle_beta 90.001
_cell_angle_gamma 89.182
_space_group_name_H-M_alt 'P 1'
_space_group_name_Hall 'P 1'
loop_
    _symmetry_equiv_pos_as_xyz
    x,y,z
loop_
    _atom_site_label
    _atom_site_type_symbol
    _atom_site_fract_x
    _atom_site_fract_y
    _atom_site_fract_z
    _atom_site_occupancy
    Zr0     Zr   0.26287   0.88289   0.62700   1.000
    Zr1     Zr   0.76617   0.62000   0.37241   1.000
    Zr2     Zr   0.76299   0.38314   0.87221   1.000
    Zr3     Zr   0.26617   0.11977   0.12743   1.000
    Zr4     Zr   0.23702   0.61688   0.12777   1.000
    Zr5     Zr   0.73383   0.88025   0.87256   1.000
    Zr6     Zr   0.73696   0.11712   0.37208   1.000
    Zr7     Zr   0.23376   0.38005   0.62762   1.000
    N8      N    0.75677   0.02856   0.11055   1.000
    O9      O    0.74386   0.97575   0.01262   1.000
    O10     O    0.75077   0.06018   0.21635   1.000
    N11     N    0.74315   0.47163   0.61055   1.000
    O12     O    0.74917   0.44006   0.71640   1.000
    O13     O    0.75601   0.52444   0.51253   1.000
    N14     N    0.25500   0.47020   0.88841   1.000
    O15     O    0.24790   0.43821   0.78282   1.000
    O16     O    0.24470   0.52234   0.98707   1.000
    N17     N    0.24324   0.97142   0.88939   1.000
    O18     O    0.24918   0.93982   0.78338   1.000
    O19     O    0.25615   0.02424   0.98734   1.000
    N20     N    0.98507   0.18716   0.98632   1.000
    O21     O    0.89798   0.27065   0.93370   1.000
    O22     O    0.10046   0.16576   0.04915   1.000
    N23     N    0.51492   0.31272   0.48889   1.000
    O24     O    0.60207   0.22971   0.43447   1.000
    O25     O    0.39940   0.33389   0.55035   1.000
    N26     N    0.24500   0.02904   0.38821   1.000
    O27     O    0.25540   0.97710   0.48675   1.000
    O28     O    0.25207   0.06115   0.28258   1.000
    N29     N    0.48325   0.31463   0.00945   1.000
    O30     O    0.39822   0.23162   0.06395   1.000
    O31     O    0.59835   0.33646   0.94857   1.000
    N32     N    0.48481   0.68684   0.51122   1.000
    O33     O    0.60040   0.66588   0.44962   1.000
    O34     O    0.39756   0.76991   0.56530   1.000
    N35     N    0.74496   0.52981   0.11156   1.000
    O36     O    0.75528   0.47767   0.01291   1.000
    O37     O    0.75204   0.56181   0.21719   1.000
    N38     N    0.01494   0.81286   0.01113   1.000
    O39     O    0.89955   0.83425   0.94956   1.000
    O40     O    0.10203   0.72937   0.06502   1.000
    N41     N    0.75497   0.97080   0.61175   1.000
    O42     O    0.74455   0.02280   0.51298   1.000
    O43     O    0.74792   0.93878   0.71739   1.000
    N44     N    0.51676   0.68538   0.98801   1.000
    O45     O    0.60178   0.76839   0.93477   1.000
    O46     O    0.40165   0.66356   0.05014   1.000
    N47     N    0.25686   0.52839   0.38944   1.000
    O48     O    0.25083   0.55996   0.28359   1.000
    O49     O    0.24400   0.47560   0.48748   1.000
    N50     N    0.01673   0.18536   0.50935   1.000
    O51     O    0.10172   0.26831   0.56393   1.000
    O52     O    0.90162   0.16361   0.44849   1.000
    N53     N    0.98315   0.81472   0.49061   1.000
    O54     O    0.89818   0.73177   0.43604   1.000
    O55     O    0.09824   0.83643   0.55126   1.000
loop_
    _geom_bond_atom_site_label_1
    _geom_bond_atom_site_label_2
    _geom_bond_distance
    _geom_bond_site_symmetry_2
    _ccdc_geom_bond_type
    N8     O9        1.97900  1_545   S
    Zr5    O9        2.98639  1_556   S
    N8     O10       1.96619      .   S
    Zr6    O10       2.95250      .   S
    N11    O12       1.96572      .   S
    Zr2    O12       2.95167      .   S
    N11    O13       1.97849      .   S
    Zr1    O13       2.98490      .   S
    N14    O15       1.96650      .   S
    Zr7    O15       2.95305      .   S
    N14    O16       1.97834      .   S
    Zr4    O16       2.98274  1_554   S
    N17    O18       1.96970      .   S
    Zr0    O18       2.96322      .   S
    N17    O19       1.97943  1_565   S
    Zr3    O19       2.98701  1_554   S
    N20    O21       2.25248      .   S
    Zr2    O21       3.18134      .   S
    N20    O22       2.30742  1_656   S
    Zr3    O22       3.26377      .   S
    N23    O24       2.26311      .   S
    Zr6    O24       3.18830      .   S
    N23    O25       2.29730      .   S
    Zr7    O25       3.25653      .   S
    N26    O27       1.97335  1_545   S
    Zr0    O27       2.96976      .   S
    N26    O28       1.96633      .   S
    Zr3    O28       2.95278      .   S
    N29    O30       2.26469      .   S
    Zr3    O30       3.18993      .   S
    N29    O31       2.29656  1_554   S
    Zr2    O31       3.25562      .   S
    N32    O33       2.29910      .   S
    Zr1    O33       3.25685      .   S
    N32    O34       2.26223      .   S
    Zr0    O34       3.18534      .   S
    N35    O36       1.97812      .   S
    Zr2    O36       2.98272  1_556   S
    N35    O37       1.96704      .   S
    Zr1    O37       2.95368      .   S
    N38    O39       2.29652  1_454   S
    Zr5    O39       3.25414      .   S
    N38    O40       2.26195      .   S
    Zr4    O40       3.18914      .   S
    N41    O42       1.97734  1_565   S
    Zr6    O42       2.98065      .   S
    N41    O43       1.96626      .   S
    Zr5    O43       2.95250      .   S
    N44    O45       2.25513      .   S
    Zr5    O45       3.18201      .   S
    N44    O46       2.30724  1_556   S
    Zr4    O46       3.26506      .   S
    N47    O48       1.96576      .   S
    Zr4    O48       2.95174      .   S
    N47    O49       1.97869      .   S
    Zr7    O49       2.98524      .   S
    N50    O51       2.26564      .   S
    Zr7    O51       3.19154      .   S
    N50    O52       2.29672  1_455   S
    Zr6    O52       3.25604      .   S
    N53    O54       2.26531      .   S
    Zr1    O54       3.19114      .   S
    N53    O55       2.29447  1_655   S
    Zr0    O55       3.25052      .   S
