# CIF file generated by openbabel 2.4.90, see http://openbabel.sf.net
data_I
_chemical_name_common ''
_cell_length_a 6.608
_cell_length_b 17.299
_cell_length_c 18.381
_cell_angle_alpha 89.998
_cell_angle_beta 89.996
_cell_angle_gamma 81.79
_space_group_name_H-M_alt 'P 1'
_space_group_name_Hall 'P 1'
loop_
    _symmetry_equiv_pos_as_xyz
    x,y,z
loop_
    _atom_site_label
    _atom_site_type_symbol
    _atom_site_fract_x
    _atom_site_fract_y
    _atom_site_fract_z
    _atom_site_occupancy
    Lv0     Lv   0.49974   0.49986   0.00004   1.000
    Lv1     Lv   0.99989   0.50004   0.49998   1.000
    Lv2     Lv   0.49974   0.99986   0.49996   1.000
    Lv3     Lv   0.47883   0.75123   0.27364   1.000
    Lv4     Lv   0.52170   0.74880   0.77350   1.000
    Lv5     Lv   0.52171   0.24881   0.72650   1.000
    Lv6     Lv   0.47884   0.25123   0.22636   1.000
    Lv7     Lv   0.99989   0.00004   0.00002   1.000
