# CIF file generated by openbabel 2.4.90, see http://openbabel.sf.net
data_I
_chemical_name_common ''
_cell_length_a 15.494
_cell_length_b 15.52
_cell_length_c 15.511
_cell_angle_alpha 74.375
_cell_angle_beta 74.601
_cell_angle_gamma 74.551
_space_group_name_H-M_alt 'P 1'
_space_group_name_Hall 'P 1'
loop_
    _symmetry_equiv_pos_as_xyz
    x,y,z
loop_
    _atom_site_label
    _atom_site_type_symbol
    _atom_site_fract_x
    _atom_site_fract_y
    _atom_site_fract_z
    _atom_site_occupancy
    Zr0     Zr   0.57368   0.00835   0.00832   1.000
    Zr1     Zr   0.00849   0.57355   0.00813   1.000
    Zr2     Zr   0.00876   0.00811   0.57352   1.000
    Zr3     Zr   0.99129   0.42648   0.99175   1.000
    Zr4     Zr   0.42628   0.99173   0.99144   1.000
    Zr5     Zr   0.99141   0.99192   0.42635   1.000
    O6      O    0.49998   0.00004   0.99988   1.000
    O7      O    0.99989   0.50001   0.99994   1.000
    O8      O    0.00008   0.00002   0.49994   1.000
    N9      N    0.49991   0.50003   0.99991   1.000
    O10     O    0.28738   0.52374   0.00038   1.000
    O11     O    0.72074   0.54724   0.00734   1.000
    O12     O    0.54710   0.72074   0.00751   1.000
    O13     O    0.45277   0.27932   0.99230   1.000
    O14     O    0.52388   0.28739   0.00034   1.000
    O15     O    0.47599   0.71269   0.99946   1.000
    O16     O    0.71242   0.47630   0.99946   1.000
    O17     O    0.27906   0.45280   0.99251   1.000
    N18     N    0.99997   0.50004   0.49993   1.000
    O19     O    0.00769   0.72060   0.54701   1.000
    O20     O    0.00045   0.52391   0.28725   1.000
    O21     O    0.00068   0.28730   0.52386   1.000
    O22     O    0.00762   0.54710   0.72054   1.000
    O23     O    0.99941   0.71275   0.47600   1.000
    O24     O    0.99234   0.27945   0.45287   1.000
    O25     O    0.99228   0.45294   0.27933   1.000
    O26     O    0.99941   0.47615   0.71260   1.000
    N27     N    0.50006   0.00003   0.49988   1.000
    O28     O    0.52394   0.00039   0.28729   1.000
    O29     O    0.54722   0.00762   0.72064   1.000
    O30     O    0.47612   0.99966   0.71245   1.000
    O31     O    0.45283   0.99245   0.27912   1.000
    O32     O    0.28760   0.00036   0.52368   1.000
    O33     O    0.27920   0.99259   0.45269   1.000
    O34     O    0.72094   0.00747   0.54712   1.000
    O35     O    0.71255   0.99968   0.47613   1.000
loop_
    _geom_bond_atom_site_label_1
    _geom_bond_atom_site_label_2
    _geom_bond_distance
    _geom_bond_site_symmetry_2
    _ccdc_geom_bond_type
    Zr0    O6        1.22663  1_554   S
    Zr4    O6        1.22663  1_565   S
    Zr1    O7        1.22657  1_454   S
    Zr3    O7        1.22657      .   S
    Zr2    O8        1.22651      .   S
    Zr5    O8        1.22651  1_665   S
    N9     O10       3.21269  1_556   S
    Zr1    O10       4.15677      .   S
    N9     O11       3.72120  1_556   S
    Zr1    O11       4.58769  1_455   S
    N9     O12       3.72550  1_556   S
    Zr0    O12       4.59420  1_545   S
    N9     O13       3.72516      .   S
    Zr4    O13       4.59374  1_565   S
    N9     O14       3.21965  1_556   S
    Zr0    O14       4.16500      .   S
    N9     O15       3.21984      .   S
    Zr4    O15       4.16504      .   S
    N9     O16       3.21253      .   S
    Zr3    O16       4.15667      .   S
    N9     O17       3.72140      .   S
    Zr3    O17       4.58782  1_655   S
    N18    O19       3.72518  1_655   S
    Zr2    O19       4.59476  1_545   S
    N18    O20       3.21713  1_655   S
    Zr1    O20       4.16178      .   S
    N18    O21       3.21897  1_655   S
    Zr2    O21       4.16506      .   S
    N18    O22       3.72364  1_655   S
    Zr1    O22       4.59222  1_554   S
    N18    O23       3.21921      .   S
    Zr5    O23       4.16509      .   S
    N18    O24       3.72487      .   S
    Zr5    O24       4.59443  1_565   S
    N18    O25       3.72383      .   S
    Zr3    O25       4.59261  1_556   S
    N18    O26       3.21669      .   S
    Zr3    O26       4.16205      .   S
    N27    O28       3.21765      .   S
    Zr0    O28       4.16235      .   S
    N27    O29       3.72358      .   S
    Zr0    O29       4.59133  1_554   S
    N27    O30       3.21721  1_545   S
    Zr4    O30       4.16256      .   S
    N27    O31       3.72399  1_545   S
    Zr4    O31       4.59183  1_556   S
    N27    O32       3.21240      .   S
    Zr2    O32       4.15652      .   S
    N27    O33       3.72095  1_545   S
    Zr5    O33       4.58749  1_655   S
    N27    O34       3.72152      .   S
    Zr2    O34       4.58815  1_455   S
    N27    O35       3.21285  1_545   S
    Zr5    O35       4.15685      .   S
