# CIF file generated by openbabel 2.4.90, see http://openbabel.sf.net
data_I
_chemical_name_common ''
_cell_length_a 15.494
_cell_length_b 15.52
_cell_length_c 15.511
_cell_angle_alpha 74.375
_cell_angle_beta 74.601
_cell_angle_gamma 74.551
_space_group_name_H-M_alt 'P 1'
_space_group_name_Hall 'P 1'
loop_
    _symmetry_equiv_pos_as_xyz
    x,y,z
loop_
    _atom_site_label
    _atom_site_type_symbol
    _atom_site_fract_x
    _atom_site_fract_y
    _atom_site_fract_z
    _atom_site_occupancy
    C0      C    0.57368   0.00835   0.00832   1.000
    C1      C    0.00849   0.57355   0.00813   1.000
    C2      C    0.00876   0.00811   0.57352   1.000
    C3      C    0.99129   0.42648   0.99175   1.000
    C4      C    0.42628   0.99173   0.99144   1.000
    C5      C    0.99141   0.99192   0.42635   1.000
    C6      C    0.52785   0.99104   0.29704   1.000
    C7      C    0.29721   0.52700   0.99163   1.000
    C8      C    0.99144   0.29726   0.52786   1.000
    C9      C    0.00881   0.47230   0.70250   1.000
    C10     C    0.47197   0.70296   0.00876   1.000
    C11     C    0.70274   0.00852   0.47277   1.000
    C12     C    0.47230   0.00894   0.70262   1.000
    C13     C    0.70250   0.47305   0.00827   1.000
    C14     C    0.00859   0.70285   0.47199   1.000
    C15     C    0.99095   0.52782   0.29727   1.000
    C16     C    0.52781   0.29716   0.99116   1.000
    C17     C    0.29751   0.99154   0.52700   1.000
    C18     C    0.26495   0.97693   0.26465   1.000
    C19     C    0.26496   0.26471   0.97702   1.000
    C20     C    0.97664   0.26534   0.26540   1.000
    C21     C    0.02336   0.73468   0.73448   1.000
    C22     C    0.73491   0.73534   0.02269   1.000
    C23     C    0.73508   0.02322   0.73517   1.000
    C24     C    0.40063   0.98310   0.27134   1.000
    C25     C    0.45636   0.98825   0.32661   1.000
    C26     C    0.43888   0.98436   0.17189   1.000
    C27     C    0.27152   0.40011   0.98347   1.000
    C28     C    0.32688   0.45569   0.98862   1.000
    C29     C    0.17194   0.43840   0.98477   1.000
    C30     C    0.98319   0.27174   0.40086   1.000
    C31     C    0.98834   0.32696   0.45641   1.000
    C32     C    0.98466   0.17216   0.43912   1.000
    C33     C    0.01696   0.59924   0.72810   1.000
    C34     C    0.01175   0.54373   0.67286   1.000
    C35     C    0.01548   0.56098   0.82774   1.000
    C36     C    0.59922   0.72864   0.01661   1.000
    C37     C    0.54349   0.67339   0.01151   1.000
    C38     C    0.56095   0.82805   0.01544   1.000
    C39     C    0.72847   0.01677   0.59970   1.000
    C40     C    0.67311   0.01155   0.54410   1.000
    C41     C    0.82803   0.01546   0.56142   1.000
    C42     C    0.59945   0.01696   0.72841   1.000
    C43     C    0.54378   0.01177   0.67309   1.000
    C44     C    0.56114   0.01569   0.82786   1.000
    C45     C    0.72828   0.59993   0.01634   1.000
    C46     C    0.67287   0.54437   0.01124   1.000
    C47     C    0.82785   0.56162   0.01506   1.000
    C48     C    0.01683   0.72832   0.59901   1.000
    C49     C    0.01165   0.67313   0.54340   1.000
    C50     C    0.01545   0.82789   0.56076   1.000
    C51     C    0.98292   0.40083   0.27177   1.000
    C52     C    0.98809   0.45637   0.32699   1.000
    C53     C    0.98435   0.43907   0.17214   1.000
    C54     C    0.40062   0.27143   0.98320   1.000
    C55     C    0.45630   0.32671   0.98830   1.000
    C56     C    0.43895   0.17203   0.98436   1.000
    C57     C    0.27167   0.98332   0.40010   1.000
    C58     C    0.32708   0.98851   0.45560   1.000
    C59     C    0.17212   0.98461   0.43840   1.000
    C60     C    0.47623   0.99704   0.47567   1.000
    C61     C    0.30831   0.98024   0.30795   1.000
    C62     C    0.42022   0.99085   0.41958   1.000
    C63     C    0.47601   0.47583   0.99706   1.000
    C64     C    0.30827   0.30801   0.98034   1.000
    C65     C    0.42007   0.41966   0.99095   1.000
    C66     C    0.99691   0.47606   0.47600   1.000
    C67     C    0.97999   0.30858   0.30860   1.000
    C68     C    0.99069   0.42008   0.42011   1.000
    C69     C    0.00296   0.52408   0.52380   1.000
    C70     C    0.01998   0.69147   0.69126   1.000
    C71     C    0.00919   0.58004   0.57974   1.000
    C72     C    0.52370   0.52428   0.00288   1.000
    C73     C    0.69158   0.69204   0.01940   1.000
    C74     C    0.57967   0.58043   0.00890   1.000
    C75     C    0.52402   0.00298   0.52400   1.000
    C76     C    0.69176   0.01987   0.69184   1.000
    C77     C    0.57998   0.00918   0.58013   1.000
    C78     C    0.52197   0.99315   0.14109   1.000
    C79     C    0.38493   0.97800   0.12528   1.000
    C80     C    0.14123   0.52134   0.99357   1.000
    C81     C    0.12515   0.38466   0.97846   1.000
    C82     C    0.99400   0.14101   0.52205   1.000
    C83     C    0.97801   0.12581   0.38527   1.000
    C84     C    0.00638   0.47803   0.85880   1.000
    C85     C    0.02204   0.61478   0.87419   1.000
    C86     C    0.47787   0.85896   0.00656   1.000
    C87     C    0.61493   0.87454   0.02189   1.000
    C88     C    0.85867   0.00673   0.47842   1.000
    C89     C    0.87486   0.02170   0.61520   1.000
    C90     C    0.47806   0.00687   0.85860   1.000
    C91     C    0.61506   0.02206   0.87450   1.000
    C92     C    0.85856   0.47868   0.00626   1.000
    C93     C    0.87464   0.61534   0.02140   1.000
    C94     C    0.00628   0.85902   0.47778   1.000
    C95     C    0.02204   0.87423   0.61465   1.000
    C96     C    0.99337   0.52204   0.14100   1.000
    C97     C    0.97787   0.38523   0.12570   1.000
    C98     C    0.52204   0.14114   0.99320   1.000
    C99     C    0.38500   0.12551   0.97792   1.000
    C100    C    0.14151   0.99328   0.52145   1.000
    C101    C    0.12527   0.97839   0.38466   1.000
    O102    O    0.55169   0.55235   0.00589   1.000
    O103    O    0.49985   0.50005   0.99997   1.000
    O104    O    0.84321   0.52015   0.01066   1.000
    O105    O    0.92493   0.45258   0.99901   1.000
    O106    O    0.51941   0.84350   0.01100   1.000
    O107    O    0.45208   0.92534   0.99900   1.000
    O108    O    0.94157   0.59444   0.01477   1.000
    O109    O    0.00093   0.54779   0.07457   1.000
    O110    O    0.01526   0.59416   0.94116   1.000
    O111    O    0.07486   0.54744   0.00085   1.000
    O112    O    0.68768   0.50871   0.00976   1.000
    O113    O    0.59430   0.94144   0.01511   1.000
    O114    O    0.54782   0.00075   0.07471   1.000
    O115    O    0.59437   0.01520   0.94141   1.000
    O116    O    0.54786   0.07474   0.00076   1.000
    O117    O    0.50773   0.68818   0.01013   1.000
    O118    O    0.62627   0.56240   0.01007   1.000
    O119    O    0.56158   0.62691   0.01021   1.000
    O120    O    0.70057   0.57215   0.01379   1.000
    O121    O    0.57136   0.70101   0.01406   1.000
    O122    O    0.77807   0.58077   0.01570   1.000
    O123    O    0.85125   0.58848   0.01823   1.000
    O124    O    0.58009   0.77835   0.01603   1.000
    O125    O    0.58794   0.85129   0.01867   1.000
    O126    O    0.70993   0.64598   0.01787   1.000
    O127    O    0.64540   0.71034   0.01801   1.000
    O128    O    0.71324   0.71369   0.02105   1.000
    O129    O    0.41190   0.98118   0.14858   1.000
    O130    O    0.40561   0.98487   0.05836   1.000
    O131    O    0.98111   0.41215   0.14892   1.000
    O132    O    0.98458   0.40585   0.05873   1.000
    O133    O    0.98886   0.48055   0.15657   1.000
    O134    O    0.48042   0.98876   0.15649   1.000
    O135    O    0.41975   0.98373   0.22162   1.000
    O136    O    0.98363   0.41995   0.22196   1.000
    O137    O    0.28663   0.97859   0.28630   1.000
    O138    O    0.97831   0.28696   0.28700   1.000
    O139    O    0.35447   0.98167   0.28965   1.000
    O140    O    0.42849   0.98568   0.29898   1.000
    O141    O    0.98146   0.35470   0.29019   1.000
    O142    O    0.98551   0.42860   0.29938   1.000
    O143    O    0.49210   0.98965   0.31183   1.000
    O144    O    0.98952   0.49209   0.31213   1.000
    O145    O    0.28999   0.98178   0.35403   1.000
    O146    O    0.98159   0.29016   0.35473   1.000
    O147    O    0.43829   0.98955   0.37310   1.000
    O148    O    0.98939   0.43823   0.37355   1.000
    O149    O    0.05834   0.98516   0.40551   1.000
    O150    O    0.14870   0.98150   0.41153   1.000
    O151    O    0.98471   0.05886   0.40581   1.000
    O152    O    0.98134   0.14898   0.41220   1.000
    O153    O    0.22189   0.98397   0.41925   1.000
    O154    O    0.29938   0.98592   0.42785   1.000
    O155    O    0.98393   0.22195   0.41999   1.000
    O156    O    0.98577   0.29935   0.42864   1.000
    O157    O    0.37365   0.98968   0.43759   1.000
    O158    O    0.44823   0.99394   0.44763   1.000
    O159    O    0.98952   0.37352   0.43826   1.000
    O160    O    0.99380   0.44807   0.44806   1.000
    O161    O    0.99884   0.92547   0.45207   1.000
    O162    O    0.92504   0.99933   0.45239   1.000
    O163    O    0.15681   0.98895   0.47993   1.000
    O164    O    0.98933   0.15658   0.48059   1.000
    O165    O    0.31230   0.99003   0.49130   1.000
    O166    O    0.98989   0.31211   0.49214   1.000
    O167    O    0.01012   0.68799   0.50770   1.000
    O168    O    0.68793   0.01004   0.50844   1.000
    O169    O    0.50012   0.00001   0.49984   1.000
    O170    O    0.99993   0.50007   0.49990   1.000
    O171    O    0.01087   0.84346   0.51927   1.000
    O172    O    0.84335   0.01110   0.51992   1.000
    O173    O    0.07513   0.00070   0.54748   1.000
    O174    O    0.00138   0.07456   0.54779   1.000
    O175    O    0.00607   0.55206   0.55177   1.000
    O176    O    0.55200   0.00608   0.55207   1.000
    O177    O    0.01042   0.62658   0.56157   1.000
    O178    O    0.01424   0.70073   0.57121   1.000
    O179    O    0.62655   0.01037   0.56212   1.000
    O180    O    0.70079   0.01416   0.57190   1.000
    O181    O    0.01614   0.77810   0.57989   1.000
    O182    O    0.01875   0.85106   0.58771   1.000
    O183    O    0.77825   0.01611   0.58056   1.000
    O184    O    0.85145   0.01858   0.58831   1.000
    O185    O    0.01540   0.94117   0.59409   1.000
    O186    O    0.94181   0.01490   0.59436   1.000
    O187    O    0.01047   0.56188   0.62630   1.000
    O188    O    0.56188   0.01048   0.62661   1.000
    O189    O    0.01841   0.70989   0.64514   1.000
    O190    O    0.71012   0.01832   0.64577   1.000
    O191    O    0.01028   0.50801   0.68768   1.000
    O192    O    0.01435   0.57148   0.70048   1.000
    O193    O    0.50804   0.01036   0.68785   1.000
    O194    O    0.57161   0.01437   0.70075   1.000
    O195    O    0.01847   0.64535   0.70968   1.000
    O196    O    0.02167   0.71307   0.71287   1.000
    O197    O    0.64561   0.01842   0.71013   1.000
    O198    O    0.71342   0.02155   0.71351   1.000
    O199    O    0.01622   0.58011   0.77792   1.000
    O200    O    0.58030   0.01633   0.77814   1.000
    O201    O    0.01093   0.51951   0.84327   1.000
    O202    O    0.01876   0.58788   0.85097   1.000
    O203    O    0.51960   0.01128   0.84323   1.000
    O204    O    0.58810   0.01888   0.85118   1.000
    O205    O    0.45217   0.99930   0.92502   1.000
    O206    O    0.99884   0.45226   0.92527   1.000
    O207    O    0.28662   0.28636   0.97868   1.000
    O208    O    0.41197   0.14877   0.98114   1.000
    O209    O    0.40564   0.05862   0.98468   1.000
    O210    O    0.14855   0.41153   0.98162   1.000
    O211    O    0.05822   0.40557   0.98511   1.000
    O212    O    0.35445   0.28972   0.98177   1.000
    O213    O    0.28990   0.35406   0.98191   1.000
    O214    O    0.41978   0.22173   0.98378   1.000
    O215    O    0.42846   0.29907   0.98575   1.000
    O216    O    0.22173   0.41925   0.98412   1.000
    O217    O    0.29920   0.42790   0.98605   1.000
    O218    O    0.48049   0.15658   0.98878   1.000
    O219    O    0.15658   0.47987   0.98917   1.000
    O220    O    0.43818   0.37319   0.98963   1.000
    O221    O    0.49205   0.31194   0.98973   1.000
    O222    O    0.37348   0.43767   0.98979   1.000
    O223    O    0.31205   0.49134   0.99013   1.000
    O224    O    0.44804   0.44774   0.99401   1.000
    O225    O    0.49998   0.00004   0.99988   1.000
    O226    O    0.99989   0.50001   0.99994   1.000
    O227    O    0.00008   0.00002   0.49994   1.000
loop_
    _geom_bond_atom_site_label_1
    _geom_bond_atom_site_label_2
    _geom_bond_distance
    _geom_bond_site_symmetry_2
    _ccdc_geom_bond_type
    C72    O102      0.70883      .   S
    C74    O102      0.70883      .   S
    C72    O103      0.60984  1_554   S
    C63    O103      0.60984      .   S
    C92    O104      0.63952      .   S
    C47    O104      0.63952      .   S
    C92    O105      0.98756  1_554   S
    C3     O105      0.98756      .   S
    C86    O106      0.63949      .   S
    C38    O106      0.63949      .   S
    C86    O107      0.98765  1_554   S
    C4     O107      0.98765      .   S
    C1     O108      0.98651  1_455   S
    C93    O108      0.98651      .   S
    C1     O109      0.98708      .   S
    C96    O109      0.98708  1_655   S
    C1     O110      0.98661  1_554   S
    C85    O110      0.98661      .   S
    C1     O111      0.98758      .   S
    C80    O111      0.98758  1_556   S
    C13    O112      0.54399      .   S
    C46    O112      0.54399      .   S
    C0     O113      0.98672  1_545   S
    C87    O113      0.98672      .   S
    C0     O114      0.98761      .   S
    C78    O114      0.98761  1_565   S
    C0     O115      0.98651  1_554   S
    C91    O115      0.98651      .   S
    C0     O116      0.98783      .   S
    C98    O116      0.98783  1_556   S
    C10    O117      0.54405      .   S
    C37    O117      0.54405      .   S
    C74    O118      0.70458      .   S
    C46    O118      0.70458      .   S
    C74    O119      0.70460      .   S
    C37    O119      0.70460      .   S
    C46    O120      0.69894      .   S
    C45    O120      0.69894      .   S
    C37    O121      0.69906      .   S
    C36    O121      0.69906      .   S
    C47    O122      0.74761      .   S
    C45    O122      0.74761      .   S
    C47    O123      0.63921      .   S
    C93    O123      0.63921      .   S
    C38    O124      0.74756      .   S
    C36    O124      0.74756      .   S
    C38    O125      0.63925      .   S
    C87    O125      0.63925      .   S
    C45    O126      0.69970      .   S
    C73    O126      0.69970      .   S
    C36    O127      0.69977      .   S
    C73    O127      0.69977      .   S
    C73    O128      0.54365      .   S
    C22    O128      0.54365      .   S
    C79    O129      0.63919      .   S
    C26    O129      0.63919      .   S
    C79    O130      0.98663      .   S
    C4     O130      0.98663  1_556   S
    C97    O131      0.63924      .   S
    C53    O131      0.63924      .   S
    C97    O132      0.98677      .   S
    C3     O132      0.98677  1_556   S
    C96    O133      0.63953      .   S
    C53    O133      0.63953      .   S
    C78    O134      0.63954      .   S
    C26    O134      0.63954      .   S
    C26    O135      0.74760      .   S
    C24    O135      0.74760      .   S
    C53    O136      0.74761      .   S
    C51    O136      0.74761      .   S
    C18    O137      0.54354      .   S
    C61    O137      0.54354      .   S
    C20    O138      0.54343      .   S
    C67    O138      0.54343      .   S
    C24    O139      0.69987      .   S
    C61    O139      0.69987      .   S
    C24    O140      0.69893      .   S
    C25    O140      0.69893      .   S
    C51    O141      0.69970      .   S
    C67    O141      0.69970      .   S
    C51    O142      0.69894      .   S
    C52    O142      0.69894      .   S
    C6     O143      0.54405      .   S
    C25    O143      0.54405      .   S
    C15    O144      0.54406      .   S
    C52    O144      0.54406      .   S
    C61    O145      0.69982      .   S
    C57    O145      0.69982      .   S
    C67    O146      0.69984      .   S
    C30    O146      0.69984      .   S
    C25    O147      0.70448      .   S
    C62    O147      0.70448      .   S
    C52    O148      0.70457      .   S
    C68    O148      0.70457      .   S
    C101   O149      0.98652      .   S
    C5     O149      0.98652  1_655   S
    C101   O150      0.63898      .   S
    C59    O150      0.63898      .   S
    C83    O151      0.98663      .   S
    C5     O151      0.98663  1_565   S
    C83    O152      0.63929      .   S
    C32    O152      0.63929      .   S
    C57    O153      0.74758      .   S
    C59    O153      0.74758      .   S
    C57    O154      0.69849      .   S
    C58    O154      0.69849      .   S
    C30    O155      0.74761      .   S
    C32    O155      0.74761      .   S
    C30    O156      0.69896      .   S
    C31    O156      0.69896      .   S
    C62    O157      0.70438      .   S
    C58    O157      0.70438      .   S
    C62    O158      0.70881      .   S
    C60    O158      0.70881      .   S
    C68    O159      0.70457      .   S
    C31    O159      0.70457      .   S
    C68    O160      0.70892      .   S
    C66    O160      0.70892      .   S
    C5     O161      0.98765      .   S
    C94    O161      0.98765  1_455   S
    C5     O162      0.98752      .   S
    C88    O162      0.98752  1_545   S
    C59    O163      0.63981      .   S
    C100   O163      0.63981      .   S
    C32    O164      0.63950      .   S
    C82    O164      0.63950      .   S
    C58    O165      0.54446      .   S
    C17    O165      0.54446      .   S
    C31    O166      0.54412      .   S
    C8     O166      0.54412      .   S
    C14    O167      0.54380      .   S
    C49    O167      0.54380      .   S
    C11    O168      0.54403      .   S
    C40    O168      0.54403      .   S
    C60    O169      0.60972  1_565   S
    C75    O169      0.60972      .   S
    C66    O170      0.60946      .   S
    C69    O170      0.60946  1_455   S
    C94    O171      0.63952      .   S
    C50    O171      0.63952      .   S
    C88    O172      0.63958      .   S
    C41    O172      0.63958      .   S
    C100   O173      0.98759  1_565   S
    C2     O173      0.98759      .   S
    C82    O174      0.98773  1_655   S
    C2     O174      0.98773      .   S
    C69    O175      0.70913      .   S
    C71    O175      0.70913      .   S
    C75    O176      0.70881      .   S
    C77    O176      0.70881      .   S
    C49    O177      0.70461      .   S
    C71    O177      0.70461      .   S
    C49    O178      0.69921      .   S
    C48    O178      0.69921      .   S
    C40    O179      0.70442      .   S
    C77    O179      0.70442      .   S
    C40    O180      0.69884      .   S
    C39    O180      0.69884      .   S
    C50    O181      0.74759      .   S
    C48    O181      0.74759      .   S
    C50    O182      0.63929      .   S
    C95    O182      0.63929      .   S
    C41    O183      0.74762      .   S
    C39    O183      0.74762      .   S
    C41    O184      0.63918      .   S
    C89    O184      0.63918      .   S
    C2     O185      0.98673  1_545   S
    C95    O185      0.98673      .   S
    C2     O186      0.98672  1_455   S
    C89    O186      0.98672      .   S
    C71    O187      0.70453      .   S
    C34    O187      0.70453      .   S
    C77    O188      0.70445      .   S
    C43    O188      0.70445      .   S
    C48    O189      0.69969      .   S
    C70    O189      0.69969      .   S
    C39    O190      0.69985      .   S
    C76    O190      0.69985      .   S
    C34    O191      0.54398      .   S
    C9     O191      0.54398      .   S
    C34    O192      0.69895      .   S
    C33    O192      0.69895      .   S
    C43    O193      0.54406      .   S
    C12    O193      0.54406      .   S
    C43    O194      0.69896      .   S
    C42    O194      0.69896      .   S
    C70    O195      0.69973      .   S
    C33    O195      0.69973      .   S
    C70    O196      0.54351      .   S
    C21    O196      0.54351      .   S
    C76    O197      0.69990      .   S
    C42    O197      0.69990      .   S
    C76    O198      0.54357      .   S
    C23    O198      0.54357      .   S
    C33    O199      0.74764      .   S
    C35    O199      0.74764      .   S
    C42    O200      0.74763      .   S
    C44    O200      0.74763      .   S
    C35    O201      0.63950      .   S
    C84    O201      0.63950      .   S
    C35    O202      0.63926      .   S
    C85    O202      0.63926      .   S
    C44    O203      0.63951      .   S
    C90    O203      0.63951      .   S
    C44    O204      0.63921      .   S
    C91    O204      0.63921      .   S
    C90    O205      0.98820  1_545   S
    C4     O205      0.98820      .   S
    C84    O206      0.98771  1_455   S
    C3     O206      0.98771      .   S
    C19    O207      0.54358      .   S
    C64    O207      0.54358      .   S
    C99    O208      0.63925      .   S
    C56    O208      0.63925      .   S
    C99    O209      0.98657      .   S
    C4     O209      0.98657  1_565   S
    C81    O210      0.63918      .   S
    C29    O210      0.63918      .   S
    C81    O211      0.98656      .   S
    C3     O211      0.98656  1_655   S
    C64    O212      0.69984      .   S
    C54    O212      0.69984      .   S
    C64    O213      0.69976      .   S
    C27    O213      0.69976      .   S
    C54    O214      0.74762      .   S
    C56    O214      0.74762      .   S
    C54    O215      0.69887      .   S
    C55    O215      0.69887      .   S
    C27    O216      0.74760      .   S
    C29    O216      0.74760      .   S
    C27    O217      0.69892      .   S
    C28    O217      0.69892      .   S
    C56    O218      0.63945      .   S
    C98    O218      0.63945      .   S
    C29    O219      0.63953      .   S
    C80    O219      0.63953      .   S
    C55    O220      0.70461      .   S
    C65    O220      0.70461      .   S
    C55    O221      0.54414      .   S
    C16    O221      0.54414      .   S
    C28    O222      0.70448      .   S
    C65    O222      0.70448      .   S
    C28    O223      0.54401      .   S
    C7     O223      0.54401      .   S
    C65    O224      0.70903      .   S
    C63    O224      0.70903      .   S
    C0     O225      1.22663  1_554   S
    C4     O225      1.22663  1_565   S
    C1     O226      1.22657  1_454   S
    C3     O226      1.22657      .   S
    C2     O227      1.22651      .   S
    C5     O227      1.22651  1_665   S
