# CIF file generated by openbabel 2.4.90, see http://openbabel.sf.net
data_I
_chemical_name_common ''
_cell_length_a 12.16
_cell_length_b 12.162
_cell_length_c 12.711
_cell_angle_alpha 102.47
_cell_angle_beta 102.441
_cell_angle_gamma 103.409
_space_group_name_H-M_alt 'P 1'
_space_group_name_Hall 'P 1'
loop_
    _symmetry_equiv_pos_as_xyz
    x,y,z
loop_
    _atom_site_label
    _atom_site_type_symbol
    _atom_site_fract_x
    _atom_site_fract_y
    _atom_site_fract_z
    _atom_site_occupancy
    Zr0     Zr   0.79560   0.20458   0.75023   1.000
    Zr1     Zr   0.20443   0.79546   0.24971   1.000
    Zr2     Zr   0.82283   0.42676   0.04868   1.000
    Zr3     Zr   0.57342   0.17775   0.45262   1.000
    Zr4     Zr   0.17721   0.57328   0.95127   1.000
    Zr5     Zr   0.42662   0.82230   0.54733   1.000
    N6      N    0.83439   0.78492   0.81659   1.000
    O7      O    0.66565   0.79425   0.69972   1.000
    O8      O    0.96657   0.68631   0.87259   1.000
    O9      O    0.99078   0.78676   0.97861   1.000
    O10     O    0.78374   0.93730   0.77247   1.000
    N11     N    0.21519   0.16528   0.68237   1.000
    O12     O    0.31379   0.03304   0.62654   1.000
    O13     O    0.06280   0.21609   0.72701   1.000
    O14     O    0.21338   0.00892   0.52066   1.000
    O15     O    0.20569   0.33421   0.79909   1.000
    N16     N    0.78485   0.83476   0.31757   1.000
    O17     O    0.68625   0.96701   0.37340   1.000
    O18     O    0.93723   0.78396   0.27292   1.000
    O19     O    0.78665   0.99112   0.47928   1.000
    O20     O    0.79434   0.66583   0.20086   1.000
    N21     N    0.50001   0.99907   0.99997   1.000
    O22     O    0.36761   0.81954   0.97219   1.000
    O23     O    0.39130   0.89292   0.09394   1.000
    O24     O    0.60874   0.10617   0.90599   1.000
    O25     O    0.63242   0.17955   0.02775   1.000
    N26     N    0.16950   0.52483   0.12221   1.000
    O27     O    0.17930   0.59983   0.15138   1.000
    O28     O    0.17249   0.54428   0.07677   1.000
    N29     N    0.16565   0.21512   0.18273   1.000
    O30     O    0.33438   0.20579   0.29991   1.000
    O31     O    0.03347   0.31373   0.12705   1.000
    O32     O    0.21629   0.06274   0.22716   1.000
    O33     O    0.00925   0.21328   0.02102   1.000
    N34     N    0.99911   0.50002   0.49997   1.000
    O35     O    0.10607   0.60860   0.40566   1.000
    O36     O    0.17958   0.63215   0.52719   1.000
    O37     O    0.89306   0.39144   0.59427   1.000
    O38     O    0.81955   0.36789   0.47275   1.000
    N39     N    0.83053   0.47521   0.87774   1.000
    O40     O    0.82074   0.40021   0.84856   1.000
    O41     O    0.82755   0.45576   0.92317   1.000
    N42     N    0.47506   0.83062   0.37665   1.000
    O43     O    0.40005   0.82073   0.34759   1.000
    O44     O    0.45559   0.82744   0.42200   1.000
    N45     N    0.52498   0.16943   0.62329   1.000
    O46     O    0.54445   0.17261   0.57795   1.000
    O47     O    0.59999   0.17932   0.65235   1.000
loop_
    _geom_bond_atom_site_label_1
    _geom_bond_atom_site_label_2
    _geom_bond_distance
    _geom_bond_site_symmetry_2
    _ccdc_geom_bond_type
    N6     O7        2.30155      .   S
    Zr5    O7        3.26132      .   S
    N6     O8        2.30179      .   S
    Zr4    O8        3.25167  1_455   S
    N6     O9        2.47618      .   S
    Zr1    O9        3.80690  1_454   S
    N6     O10       2.22664      .   S
    Zr0    O10       3.29604  1_545   S
    N11    O12       2.30131      .   S
    Zr5    O12       3.25224  1_565   S
    N11    O13       2.22935      .   S
    Zr0    O13       3.29903  1_655   S
    N11    O14       2.47281      .   S
    Zr1    O14       3.80252  1_565   S
    N11    O15       2.30286      .   S
    Zr4    O15       3.26227      .   S
    N16    O17       2.30134      .   S
    Zr3    O17       3.25229  1_545   S
    N16    O18       2.22936      .   S
    Zr1    O18       3.29903  1_455   S
    N16    O19       2.47282      .   S
    Zr0    O19       3.80253  1_545   S
    N16    O20       2.30285      .   S
    Zr2    O20       3.26228      .   S
    N21    O22       2.29694      .   S
    Zr4    O22       3.25210      .   S
    N21    O23       2.32297  1_556   S
    Zr1    O23       3.49156      .   S
    N21    O24       2.32914  1_565   S
    Zr0    O24       3.49519      .   S
    N21    O25       2.30565  1_566   S
    Zr2    O25       3.26060      .   S
    N26    O27       0.87648      .   S
    Zr1    O27       2.35170      .   S
    N26    O28       0.67443      .   S
    Zr4    O28       1.71626  1_556   S
    N29    O30       2.30339      .   S
    Zr3    O30       3.26300      .   S
    N29    O31       2.30070      .   S
    Zr2    O31       3.25074  1_655   S
    N29    O32       2.22811      .   S
    Zr1    O32       3.29726  1_565   S
    N29    O33       2.47357      .   S
    Zr0    O33       3.80395  1_656   S
    N34    O35       2.33043  1_655   S
    Zr1    O35       3.49741      .   S
    N34    O36       2.30542  1_655   S
    Zr5    O36       3.26017      .   S
    N34    O37       2.32454      .   S
    Zr0    O37       3.49397      .   S
    N34    O38       2.29707      .   S
    Zr3    O38       3.25199      .   S
    N39    O40       0.87649      .   S
    Zr0    O40       2.35172      .   S
    N39    O41       0.67447      .   S
    Zr2    O41       1.71630  1_554   S
    N42    O43       0.87621      .   S
    Zr1    O43       2.34974      .   S
    N42    O44       0.67376      .   S
    Zr5    O44       1.71479      .   S
    N45    O46       0.67375      .   S
    Zr3    O46       1.71478      .   S
    N45    O47       0.87621      .   S
    Zr0    O47       2.34971      .   S
