# CIF file generated by openbabel 2.4.90, see http://openbabel.sf.net
data_I
_chemical_name_common ''
_cell_length_a 18.394
_cell_length_b 18.394
_cell_length_c 18.394
_cell_angle_alpha 60.411
_cell_angle_beta 60.407
_cell_angle_gamma 60.411
_space_group_name_H-M_alt 'P 1'
_space_group_name_Hall 'P 1'
loop_
    _symmetry_equiv_pos_as_xyz
    x,y,z
loop_
    _atom_site_label
    _atom_site_type_symbol
    _atom_site_fract_x
    _atom_site_fract_y
    _atom_site_fract_z
    _atom_site_occupancy
    Zn0     Zn   0.79397   0.79393   0.79393   1.000
    Zn1     Zn   0.20697   0.38020   0.20693   1.000
    Zn2     Zn   0.20697   0.20694   0.38020   1.000
    Zn3     Zn   0.38020   0.20698   0.20697   1.000
    Zn4     Zn   0.61979   0.79304   0.79303   1.000
    Zn5     Zn   0.79302   0.79308   0.61980   1.000
    Zn6     Zn   0.79302   0.61982   0.79307   1.000
    Zn7     Zn   0.20602   0.20609   0.20607   1.000
