# CIF file generated by openbabel 2.4.90, see http://openbabel.sf.net
data_I
_chemical_name_common 'VESTA_phase_1'
_cell_length_a 13.444
_cell_length_b 14.201
_cell_length_c 19.045
_cell_angle_alpha 90.774
_cell_angle_beta 108.294
_cell_angle_gamma 93.384
_space_group_name_H-M_alt 'P 1'
_space_group_name_Hall 'P 1'
loop_
    _symmetry_equiv_pos_as_xyz
    x,y,z
loop_
    _atom_site_label
    _atom_site_type_symbol
    _atom_site_fract_x
    _atom_site_fract_y
    _atom_site_fract_z
    _atom_site_occupancy
    Cd0     Cd   0.93087   0.46943   0.19495   1.000
    Cd1     Cd   0.47685   0.88782   0.58160   1.000
    Cd2     Cd   0.06908   0.53052   0.80500   1.000
    Cd3     Cd   0.52311   0.11212   0.41830   1.000
    H4      H    0.17522   0.43426   0.17110   1.000
    H5      H    0.87591   0.39729   0.01125   1.000
    H6      H    0.02168   0.32196   0.95319   1.000
    H7      H    0.19179   0.35051   0.94302   1.000
    H8      H    0.47988   0.22207   0.05731   1.000
    H9      H    0.27643   0.30726   0.17803   1.000
    H10     H    0.34993   0.16319   0.24178   1.000
    H11     H    0.60694   0.28127   0.17910   1.000
    H12     H    0.67950   0.20460   0.31844   1.000
    H13     H    0.20445   0.28000   0.84408   1.000
    H14     H    0.49752   0.24385   0.81352   1.000
    H15     H    0.52844   0.26211   0.96307   1.000
    H16     H    0.05566   0.44577   0.37760   1.000
    H17     H    0.10417   0.26806   0.21447   1.000
    H18     H    0.24970   0.23207   0.34978   1.000
    H19     H    0.27633   0.60247   0.59294   1.000
    H20     H    0.18984   0.68037   0.69333   1.000
    H21     H    0.16144   0.38453   0.70400   1.000
    H22     H    0.18172   0.47803   0.48989   1.000
    H23     H    0.24794   0.18928   0.45887   1.000
    H24     H    0.31137   0.30856   0.67958   1.000
    H25     H    0.38272   0.10122   0.51405   1.000
    H26     H    0.29413   0.15504   0.70570   1.000
    H27     H    0.37109   0.97736   0.71172   1.000
    H28     H    0.82474   0.56572   0.82886   1.000
    H29     H    0.12406   0.60270   0.98870   1.000
    H30     H    0.97830   0.67804   0.04676   1.000
    H31     H    0.80818   0.64948   0.05693   1.000
    H32     H    0.52009   0.77791   0.94265   1.000
    H33     H    0.72354   0.69272   0.82190   1.000
    H34     H    0.65003   0.83679   0.75816   1.000
    H35     H    0.39303   0.71872   0.82086   1.000
    H36     H    0.32046   0.79537   0.68151   1.000
    H37     H    0.79552   0.71998   0.15588   1.000
    H38     H    0.50245   0.75613   0.18643   1.000
    H39     H    0.47153   0.73789   0.03688   1.000
    H40     H    0.94430   0.55420   0.62228   1.000
    H41     H    0.89580   0.73191   0.78549   1.000
    H42     H    0.75028   0.76791   0.65018   1.000
    H43     H    0.72362   0.39751   0.40701   1.000
    H44     H    0.81010   0.31960   0.30663   1.000
    H45     H    0.83853   0.61543   0.29556   1.000
    H46     H    0.81825   0.52194   0.51006   1.000
    H47     H    0.75204   0.81070   0.54109   1.000
    H48     H    0.68860   0.69141   0.32038   1.000
    H49     H    0.61727   0.89876   0.48591   1.000
    H50     H    0.70584   0.84493   0.29417   1.000
    H51     H    0.62887   0.02261   0.28823   1.000
    C52     C    0.11240   0.41309   0.12090   1.000
    C53     C    0.95990   0.39310   0.03569   1.000
    C54     C    0.03050   0.35549   0.00654   1.000
    C55     C    0.22278   0.32965   0.05986   1.000
    C56     C    0.24427   0.32269   0.99300   1.000
    C57     C    0.33725   0.28373   0.99221   1.000
    C58     C    0.40838   0.25377   0.05760   1.000
    C59     C    0.38546   0.26291   0.12375   1.000
    C60     C    0.29278   0.30039   0.12584   1.000
    C61     C    0.42989   0.18555   0.24541   1.000
    C62     C    0.56582   0.24455   0.21263   1.000
    C63     C    0.60011   0.20658   0.28115   1.000
    C64     C    0.28772   0.27253   0.85418   1.000
    C65     C    0.43992   0.25237   0.84180   1.000
    C66     C    0.45713   0.26043   0.91643   1.000
    C67     C    0.08814   0.39356   0.35076   1.000
    C68     C    0.11608   0.30020   0.26867   1.000
    C69     C    0.18738   0.28023   0.33490   1.000
    C70     C    0.23771   0.56950   0.62957   1.000
    C71     C    0.19596   0.60700   0.68004   1.000
    C72     C    0.18096   0.45485   0.68940   1.000
    C73     C    0.24391   0.39954   0.58870   1.000
    C74     C    0.21144   0.41145   0.51224   1.000
    C75     C    0.21354   0.33503   0.46583   1.000
    C76     C    0.25093   0.24972   0.49517   1.000
    C77     C    0.28792   0.24135   0.57176   1.000
    C78     C    0.28448   0.31577   0.61960   1.000
    C79     C    0.36767   0.08907   0.56584   1.000
    C80     C    0.32166   0.11601   0.66682   1.000
    C81     C    0.36071   0.02894   0.66910   1.000
    C82     C    0.46965   0.69481   0.54015   1.000
    C83     C    0.48653   0.59436   0.51942   1.000
    C84     C    0.52064   0.52735   0.57373   1.000
    C85     C    0.53348   0.43403   0.55489   1.000
    C86     C    0.70282   0.43367   0.09159   1.000
    C87     C    0.59821   0.46842   0.04393   1.000
    C88     C    0.52398   0.49649   0.07647   1.000
    C89     C    0.42742   0.52720   0.03308   1.000
    C90     C    0.01876   0.67441   0.22940   1.000
    C91     C    0.09723   0.75413   0.27115   1.000
    C92     C    0.18611   0.77794   0.24990   1.000
    C93     C    0.26283   0.84648   0.28973   1.000
    C94     C    0.25325   0.89317   0.35237   1.000
    C95     C    0.16240   0.87253   0.37189   1.000
    C96     C    0.08540   0.80412   0.33169   1.000
    C97     C    0.34386   0.95877   0.39988   1.000
    C98     C    0.88757   0.58689   0.87906   1.000
    C99     C    0.04007   0.60689   0.96426   1.000
    C100    C    0.96947   0.64450   0.99341   1.000
    C101    C    0.77719   0.67034   0.94010   1.000
    C102    C    0.75570   0.67730   0.00693   1.000
    C103    C    0.66272   0.71626   0.00775   1.000
    C104    C    0.59159   0.74622   0.94236   1.000
    C105    C    0.61451   0.73707   0.87620   1.000
    C106    C    0.70719   0.69960   0.87412   1.000
    C107    C    0.57008   0.81442   0.75454   1.000
    C108    C    0.43415   0.75543   0.78733   1.000
    C109    C    0.39986   0.79339   0.71880   1.000
    C110    C    0.71225   0.72745   0.14578   1.000
    C111    C    0.56005   0.74762   0.15811   1.000
    C112    C    0.54284   0.73956   0.08352   1.000
    C113    C    0.91182   0.60641   0.64919   1.000
    C114    C    0.88389   0.69977   0.73129   1.000
    C115    C    0.81260   0.71975   0.66499   1.000
    C116    C    0.76224   0.43047   0.37039   1.000
    C117    C    0.80399   0.39297   0.31991   1.000
    C118    C    0.81901   0.54511   0.31056   1.000
    C119    C    0.75606   0.60043   0.41126   1.000
    C120    C    0.78853   0.58853   0.48772   1.000
    C121    C    0.78643   0.66495   0.53413   1.000
    C122    C    0.74904   0.75025   0.50478   1.000
    C123    C    0.71206   0.75862   0.42820   1.000
    C124    C    0.71549   0.68420   0.38034   1.000
    C125    C    0.63231   0.91090   0.43412   1.000
    C126    C    0.67832   0.88396   0.33313   1.000
    C127    C    0.63926   0.97103   0.33085   1.000
    C128    C    0.53029   0.30512   0.45980   1.000
    C129    C    0.51337   0.40556   0.48055   1.000
    C130    C    0.47926   0.47257   0.42624   1.000
    C131    C    0.46642   0.56588   0.44500   1.000
    C132    C    0.29714   0.56633   0.90837   1.000
    C133    C    0.40175   0.53157   0.95604   1.000
    C134    C    0.47598   0.50350   0.92350   1.000
    C135    C    0.57254   0.47279   0.96688   1.000
    C136    C    0.98121   0.32554   0.77056   1.000
    C137    C    0.90274   0.24582   0.72883   1.000
    C138    C    0.81386   0.22200   0.75004   1.000
    C139    C    0.73715   0.15345   0.71025   1.000
    C140    C    0.74674   0.10676   0.64760   1.000
    C141    C    0.83759   0.12741   0.62809   1.000
    C142    C    0.91458   0.19582   0.66829   1.000
    C143    C    0.65612   0.04118   0.60007   1.000
    Br144   Br   0.54888   0.56612   0.67538   1.000
    Br145   Br   0.57729   0.34229   0.62883   1.000
    Br146   Br   0.55754   0.49240   0.18161   1.000
    Br147   Br   0.32839   0.56609   0.07958   1.000
    Br148   Br   0.96082   0.77790   0.35876   1.000
    Br149   Br   0.14686   0.93998   0.45525   1.000
    Br150   Br   0.20171   0.71367   0.16536   1.000
    Br151   Br   0.38602   0.87644   0.26190   1.000
    Br152   Br   0.45104   0.43381   0.32458   1.000
    Br153   Br   0.42264   0.65764   0.37114   1.000
    Br154   Br   0.44242   0.50758   0.81836   1.000
    Br155   Br   0.67158   0.43391   0.92038   1.000
    Br156   Br   0.03917   0.22205   0.64123   1.000
    Br157   Br   0.85312   0.05998   0.54472   1.000
    Br158   Br   0.79825   0.28627   0.83461   1.000
    Br159   Br   0.61395   0.12349   0.73799   1.000
    N160    N    0.01158   0.42871   0.10684   1.000
    N161    N    0.12766   0.36757   0.06155   1.000
    N162    N    0.35939   0.27394   0.92468   1.000
    N163    N    0.33418   0.25934   0.80338   1.000
    N164    N    0.45675   0.23154   0.19040   1.000
    N165    N    0.51527   0.16951   0.30074   1.000
    N166    N    0.05470   0.37107   0.27890   1.000
    N167    N    0.16917   0.34010   0.38750   1.000
    N168    N    0.22806   0.47192   0.63608   1.000
    N169    N    0.16023   0.53513   0.71641   1.000
    N170    N    0.32593   0.15391   0.60059   1.000
    N171    N    0.38894   0.01281   0.60598   1.000
    N172    N    0.98839   0.57127   0.89311   1.000
    N173    N    0.87231   0.63241   0.93841   1.000
    N174    N    0.64058   0.72604   0.07527   1.000
    N175    N    0.66579   0.74064   0.19658   1.000
    N176    N    0.54322   0.76845   0.80956   1.000
    N177    N    0.48469   0.83045   0.69921   1.000
    N178    N    0.94527   0.62889   0.72098   1.000
    N179    N    0.83080   0.65988   0.61240   1.000
    N180    N    0.77190   0.52805   0.36380   1.000
    N181    N    0.83973   0.46483   0.28355   1.000
    N182    N    0.67404   0.84607   0.39936   1.000
    N183    N    0.61103   0.98716   0.39397   1.000
    O184    O    0.77899   0.49733   0.10647   1.000
    O185    O    0.70469   0.35026   0.11110   1.000
    O186    O    0.03348   0.59502   0.26086   1.000
    O187    O    0.95098   0.69156   0.16990   1.000
    O188    O    0.54801   0.75509   0.55046   1.000
    O189    O    0.38206   0.71180   0.54600   1.000
    O190    O    0.34995   0.04337   0.37959   1.000
    O191    O    0.40776   0.92174   0.45378   1.000
    O192    O    0.22097   0.50267   0.89349   1.000
    O193    O    0.29528   0.64974   0.88880   1.000
    O194    O    0.96649   0.40492   0.73908   1.000
    O195    O    0.04897   0.30844   0.83008   1.000
    O196    O    0.45198   0.24479   0.44953   1.000
    O197    O    0.61788   0.28819   0.45394   1.000
    O198    O    0.65001   0.95656   0.62034   1.000
    O199    O    0.59224   0.07825   0.54619   1.000
loop_
    _geom_bond_atom_site_label_1
    _geom_bond_atom_site_label_2
    _geom_bond_distance
    _geom_bond_site_symmetry_2
    _ccdc_geom_bond_type
    C54    C53       1.37004  1_455   S
    C54    N161      1.39381      .   S
    C54    H6        1.08527  1_554   S
    C102   C103      1.40099      .   S
    C102   H31       1.08718      .   S
    C102   C101      1.39423  1_554   S
    C103   N174      1.41487      .   S
    C103   C104      1.40039  1_554   S
    H5     C53       1.08343      .   S
    C89    C88       1.40057      .   S
    C89    Br147     1.91716      .   S
    C89    C133      1.40101  1_554   S
    C53    N160      1.38695  1_655   S
    H39    C112      1.08204      .   S
    C87    C88       1.40257      .   S
    C87    C86       1.52910      .   S
    C87    C135      1.40119  1_554   S
    H30    C100      1.08529  1_554   S
    H8     C58       1.08663      .   S
    C58    C59       1.39396      .   S
    C58    C57       1.40039  1_554   S
    C55    N161      1.42594      .   S
    C55    C60       1.39828      .   S
    C55    C56       1.39479  1_554   S
    N161   C52       1.37079      .   S
    N174   C112      1.39519      .   S
    N174   C110      1.38451      .   S
    C88    Br146     1.91195      .   S
    C112   C111      1.36776      .   S
    C86    O184      1.28370      .   S
    C86    O185      1.24551      .   S
    O184   Cd0       2.26259      .   S
    N160   C52       1.32942      .   S
    N160   Cd0       2.34911  1_455   S
    C52    H4        1.08309      .   S
    C59    C60       1.39495      .   S
    C59    N164      1.42490      .   S
    C60    H9        1.08762      .   S
    C110   H37       1.08668      .   S
    C110   N175      1.32275      .   S
    C111   H38       1.08474      .   S
    C111   N175      1.38996      .   S
    Br150  C92       1.91418      .   S
    O187   C90       1.24862  1_655   S
    H11    C62       1.08712      .   S
    N164   C62       1.39273      .   S
    N164   C61       1.37207      .   S
    Cd0    O186      2.28503  1_655   S
    Cd0    N166      2.43771  1_655   S
    Cd0    N181      2.37581      .   S
    C62    C63       1.37002      .   S
    H17    C68       1.08367      .   S
    C90    O186      1.28048      .   S
    C90    C91       1.52799      .   S
    H10    C61       1.08336      .   S
    C61    N165      1.32583      .   S
    C92    C91       1.40196      .   S
    C92    C93       1.39892      .   S
    Br151  C93       1.91810      .   S
    C68    N166      1.38769      .   S
    C68    C69       1.36857      .   S
    C91    C96       1.40188      .   S
    N166   C67       1.32743      .   S
    C63    N165      1.38520      .   S
    C63    H12       1.08288      .   S
    N181   C118      1.32423      .   S
    N181   C117      1.38633      .   S
    H51    C127      1.08251  1_545   S
    C93    C94       1.40163      .   S
    H50    C126      1.08640      .   S
    H45    C118      1.08242      .   S
    N165   Cd3       2.36634      .   S
    H44    C117      1.08279      .   S
    C118   N180      1.37095      .   S
    C117   C116      1.37232      .   S
    H48    C124      1.09249      .   S
    Br152  C130      1.91857      .   S
    C127   C126      1.36753      .   S
    C127   N183      1.38958      .   S
    C96    Br148     1.91915  1_455   S
    C96    C95       1.40185      .   S
    C126   N182      1.39428      .   S
    C69    H18       1.08336      .   S
    C69    N167      1.39351      .   S
    C67    H16       1.08160      .   S
    C67    N167      1.37334      .   S
    C94    C95       1.40057      .   S
    C94    C97       1.52382      .   S
    N180   C116      1.39518      .   S
    N180   C119      1.42841      .   S
    C116   H43       1.08749      .   S
    Br153  C131      1.90873      .   S
    C95    Br149     1.91626      .   S
    O190   C97       1.27289  1_545   S
    O190   Cd3       2.35603      .   S
    C124   C119      1.39769      .   S
    C124   C123      1.39853      .   S
    N167   C75       1.42681      .   S
    N183   Cd3       2.30869  1_565   S
    N183   C125      1.32709      .   S
    N182   C123      1.42201      .   S
    N182   C125      1.37051      .   S
    C97    O191      1.25797      .   S
    C119   C120      1.39853      .   S
    Cd3    O196      2.31464      .   S
    Cd3    O199      2.38556      .   S
    C130   C131      1.40232      .   S
    C130   C129      1.40213      .   S
    C123   C122      1.39459      .   S
    C125   H49       1.08131      .   S
    C131   C83       1.40585      .   S
    O196   C128      1.28079      .   S
    O191   Cd1       2.38451      .   S
    O197   C128      1.25381      .   S
    H23    C76       1.08573      .   S
    C128   C129      1.52384      .   S
    C75    C76       1.39510      .   S
    C75    C74       1.39753      .   S
    C129   C85       1.40442      .   S
    C120   H46       1.08790      .   S
    C120   C121      1.39754      .   S
    H22    C74       1.08798      .   S
    C76    C77       1.39477      .   S
    C122   C121      1.39515      .   S
    C122   H47       1.08585      .   S
    C74    C73       1.39853      .   S
    H25    C79       1.08137      .   S
    C83    C82       1.52370      .   S
    C83    C84       1.40211      .   S
    C121   N179      1.42576      .   S
    C82    O189      1.25397      .   S
    C82    O188      1.28069      .   S
    Br157  C141      1.91632      .   S
    O199   C143      1.25790      .   S
    O188   Cd1       2.31487      .   S
    C85    C84       1.40276      .   S
    C85    Br145     1.90969      .   S
    C79    N170      1.37043      .   S
    C79    N171      1.32702      .   S
    C77    N170      1.42196      .   S
    C77    C78       1.39829      .   S
    C84    Br144     1.91839      .   S
    Cd1    N171      2.30930  1_565   S
    Cd1    O198      2.35604      .   S
    Cd1    N177      2.36705      .   S
    C73    C78       1.39759      .   S
    C73    N168      1.42737      .   S
    H19    C70       1.08762      .   S
    C143   O198      1.27297  1_545   S
    C143   C140      1.52385      .   S
    N170   C80       1.39433      .   S
    N171   C81       1.38961      .   S
    N179   C113      1.37361      .   S
    N179   C115      1.39334      .   S
    C78    H24       1.09285      .   S
    H40    C113      1.08235      .   S
    C141   C140      1.40051      .   S
    C141   C142      1.40183      .   S
    C70    N168      1.39498      .   S
    C70    C71       1.37216      .   S
    N168   C72       1.37228      .   S
    Br156  C142      1.91911  1_455   S
    C140   C139      1.40182      .   S
    C113   N178      1.32619      .   S
    H42    C115      1.08334      .   S
    C115   C114      1.36951      .   S
    C80    C81       1.36753      .   S
    C80    H26       1.08521      .   S
    C142   C137      1.40191      .   S
    C81    H27       1.08254  1_545   S
    C71    H20       1.08282      .   S
    C71    N169      1.38644      .   S
    H36    C109      1.08289      .   S
    C72    H21       1.07977      .   S
    C72    N169      1.32422      .   S
    N177   C109      1.38515      .   S
    N177   C107      1.32583      .   S
    C139   Br159     1.91724      .   S
    C139   C138      1.39869      .   S
    N169   Cd2       2.37575      .   S
    C109   C108      1.37012      .   S
    N178   C114      1.38817      .   S
    N178   Cd2       2.43835  1_655   S
    C137   C138      1.40158      .   S
    C137   C136      1.52797      .   S
    C114   H41       1.08366      .   S
    O194   C136      1.28041      .   S
    O194   Cd2       2.28514  1_655   S
    C138   Br158     1.91479      .   S
    C107   H34       1.08339      .   S
    C107   N176      1.37214      .   S
    C136   O195      1.24866  1_655   S
    C108   N176      1.39275      .   S
    C108   H35       1.08706      .   S
    N163   C65       1.38977      .   S
    N163   C64       1.32275      .   S
    Cd2    N172      2.34910  1_455   S
    Cd2    O192      2.26261      .   S
    N176   C105      1.42477      .   S
    H14    C65       1.08420      .   S
    Br154  C134      1.91194      .   S
    H33    C106      1.08818      .   S
    H28    C98       1.08311      .   S
    C65    C66       1.36851      .   S
    H13    C64       1.08667      .   S
    C64    N162      1.38437      .   S
    C106   C105      1.39488      .   S
    C106   C101      1.39828      .   S
    C105   C104      1.39414      .   S
    C98    N172      1.32944      .   S
    C98    N173      1.37081      .   S
    O193   C132      1.24586      .   S
    N172   C99       1.38699  1_655   S
    O192   C132      1.28370      .   S
    C132   C133      1.52917      .   S
    C66    N162      1.39518      .   S
    C66    H15       1.08205      .   S
    Br155  C135      1.91717      .   S
    C134   C133      1.40259      .   S
    C134   C135      1.40052      .   S
    N162   C57       1.41505      .   S
    N173   C101      1.42593      .   S
    N173   C100      1.39375      .   S
    C104   H32       1.08663      .   S
    H7     C56       1.08693      .   S
    C99    H29       1.08344      .   S
    C99    C100      1.37003  1_455   S
    C57    C56       1.40083      .   S
