# CIF file generated by openbabel 2.4.90, see http://openbabel.sf.net
data_I
_chemical_name_common ''
_cell_length_a 15.556
_cell_length_b 21.857
_cell_length_c 21.842
_cell_angle_alpha 119.901
_cell_angle_beta 89.952
_cell_angle_gamma 90.044
_space_group_name_H-M_alt 'P 1'
_space_group_name_Hall 'P 1'
loop_
    _symmetry_equiv_pos_as_xyz
    x,y,z
loop_
    _atom_site_label
    _atom_site_type_symbol
    _atom_site_fract_x
    _atom_site_fract_y
    _atom_site_fract_z
    _atom_site_occupancy
    Zn0     Zn   0.50001   0.49999   0.50000   1.000
    Zn1     Zn   0.00000   1.00000   0.50000   1.000
    Zn2     Zn   0.50000   0.00001   0.50000   1.000
    Zn3     Zn   0.00001   0.50000   0.00000   1.000
    Zn4     Zn   0.50001   0.49999   0.99999   1.000
    H5      H    0.23609   0.35143   0.41702   1.000
    H6      H    0.73610   0.35142   0.41703   1.000
    H7      H    0.19177   0.32993   0.33409   1.000
    H8      H    0.69178   0.32992   0.33410   1.000
    H9      H    0.18035   0.27029   0.36753   1.000
    H10     H    0.68035   0.27029   0.36753   1.000
    H11     H    0.06153   0.27736   0.42970   1.000
    H12     H    0.56152   0.27735   0.42971   1.000
    H13     H    0.46682   0.20800   0.40994   1.000
    H14     H    0.96683   0.20800   0.40994   1.000
    H15     H    0.36173   0.13112   0.42135   1.000
    H16     H    0.86173   0.13113   0.42135   1.000
    H17     H    0.21954   0.31398   0.57330   1.000
    H18     H    0.71955   0.31399   0.57330   1.000
    H19     H    0.32682   0.39098   0.56140   1.000
    H20     H    0.82683   0.39099   0.56146   1.000
    H21     H    0.30151   0.07966   0.47127   1.000
    H22     H    0.80152   0.07966   0.47127   1.000
    H23     H    0.18435   0.00127   0.46760   1.000
    H24     H    0.68436   0.00128   0.46759   1.000
    H25     H    0.00051   0.15655   0.52409   1.000
    H26     H    0.50052   0.15656   0.52409   1.000
    H27     H    0.10784   0.24186   0.52583   1.000
    H28     H    0.60786   0.24187   0.52584   1.000
    H29     H    0.23589   0.06596   0.64893   1.000
    H30     H    0.73590   0.06598   0.64890   1.000
    H31     H    0.19154   0.00000   0.67070   1.000
    Zn32    Zn   0.00000   0.50000   0.49999   1.000
    H33     H    0.69155   0.00000   0.67060   1.000
    H34     H    0.18011   0.09758   0.73014   1.000
    H35     H    0.68013   0.09759   0.73013   1.000
    H36     H    0.06119   0.15230   0.72288   1.000
    H37     H    0.56119   0.15230   0.72288   1.000
    H38     H    0.46664   0.20197   0.79215   1.000
    H39     H    0.96664   0.20196   0.79214   1.000
    H40     H    0.36169   0.29013   0.86880   1.000
    H41     H    0.86169   0.29013   0.86887   1.000
    H42     H    0.21945   0.25883   0.68568   1.000
    H43     H    0.71947   0.25884   0.68567   1.000
    H44     H    0.32660   0.17013   0.60882   1.000
    H45     H    0.82661   0.17013   0.60881   1.000
    H46     H    0.30158   0.39139   0.92007   1.000
    H47     H    0.80158   0.39138   0.92007   1.000
    H48     H    0.18462   0.46620   0.99832   1.000
    H49     H    0.68462   0.46619   0.99831   1.000
    H50     H    0.00064   0.36736   0.84309   1.000
    H51     H    0.50065   0.36736   0.84307   1.000
    H52     H    0.10779   0.28375   0.75796   1.000
    H53     H    0.60780   0.28376   0.75794   1.000
    H54     H    0.23611   0.58299   0.93400   1.000
    H55     H    0.73612   0.58296   0.93398   1.000
    H56     H    0.19178   0.66583   0.99520   1.000
    H57     H    0.69180   0.66581   0.99520   1.000
    H58     H    0.18044   0.63254   0.90227   1.000
    H59     H    0.68046   0.63251   0.90225   1.000
    H60     H    0.06146   0.57051   0.84744   1.000
    H61     H    0.56146   0.57051   0.84743   1.000
    H62     H    0.46671   0.59007   0.79760   1.000
    H63     H    0.96671   0.59008   0.79769   1.000
    H64     H    0.36164   0.57856   0.70945   1.000
    H65     H    0.86165   0.57855   0.70945   1.000
    H66     H    0.21954   0.42675   0.74121   1.000
    H67     H    0.71957   0.42673   0.74100   1.000
    H68     H    0.32682   0.43866   0.82995   1.000
    H69     H    0.82684   0.43865   0.82995   1.000
    H70     H    0.30151   0.52849   0.60820   1.000
    H71     H    0.80152   0.52850   0.60821   1.000
    H72     H    0.18444   0.53203   0.53342   1.000
    H73     H    0.68444   0.53204   0.53344   1.000
    H74     H    0.00050   0.47568   0.63271   1.000
    H75     H    0.50051   0.47566   0.63270   1.000
    H76     H    0.10774   0.47408   0.71633   1.000
    H77     H    0.60775   0.47406   0.71633   1.000
    H78     H    0.26392   0.64854   0.58296   1.000
    H79     H    0.76394   0.64858   0.58300   1.000
    H80     H    0.30824   0.67006   0.66589   1.000
    H81     H    0.80827   0.67007   0.66592   1.000
    H82     H    0.31966   0.72968   0.63244   1.000
    H83     H    0.81970   0.72971   0.63200   1.000
    H84     H    0.43849   0.72262   0.57027   1.000
    H85     H    0.93851   0.72264   0.57030   1.000
    H86     H    0.03320   0.79199   0.59006   1.000
    H87     H    0.53320   0.79198   0.59000   1.000
    H88     H    0.13829   0.86886   0.57860   1.000
    H89     H    0.63830   0.86885   0.57864   1.000
    H90     H    0.28047   0.68601   0.42670   1.000
    H91     H    0.78048   0.68599   0.42670   1.000
    H92     H    0.17319   0.60901   0.43854   1.000
    H93     H    0.67320   0.60899   0.43853   1.000
    H94     H    0.19851   0.92033   0.52874   1.000
    H95     H    0.69851   0.92032   0.52872   1.000
    H96     H    0.31566   0.99872   0.53241   1.000
    H97     H    0.81566   0.99871   0.53239   1.000
    H98     H    0.49950   0.84344   0.47590   1.000
    H99     H    0.99951   0.84343   0.47590   1.000
    C100    C    0.83378   0.19708   0.66593   1.000
    C101    C    0.21531   0.32971   0.83083   1.000
    C102    C    0.71532   0.32970   0.83082   1.000
    C103    C    0.23590   0.38270   0.89989   1.000
    H104    H    0.39217   0.75813   0.47417   1.000
    H105    H    0.89218   0.75812   0.47416   1.000
    H106    H    0.26412   0.93402   0.35108   1.000
    H107    H    0.76413   0.93402   0.35107   1.000
    H108    H    0.30847   0.99533   0.32931   1.000
    H109    H    0.80849   0.99533   0.32931   1.000
    H110    H    0.31989   0.90240   0.26986   1.000
    H111    H    0.81991   0.90240   0.26980   1.000
    H112    H    0.43883   0.84769   0.27711   1.000
    H113    H    0.93884   0.84769   0.27711   1.000
    H114    H    0.03338   0.79802   0.20785   1.000
    H115    H    0.53338   0.79802   0.20785   1.000
    H116    H    0.13833   0.70986   0.13112   1.000
    H117    H    0.63833   0.70986   0.13112   1.000
    H118    H    0.28056   0.74115   0.31431   1.000
    H119    H    0.78056   0.74115   0.31430   1.000
    H120    H    0.17342   0.82985   0.39118   1.000
    H121    H    0.67341   0.82985   0.39118   1.000
    H122    H    0.19844   0.60860   0.07992   1.000
    H123    H    0.69844   0.60860   0.07992   1.000
    H124    H    0.31540   0.53379   0.00167   1.000
    H125    H    0.81540   0.53379   0.00168   1.000
    H126    H    0.49937   0.63262   0.15691   1.000
    H127    H    0.99937   0.63263   0.15692   1.000
    H128    H    0.39223   0.71623   0.24204   1.000
    H129    H    0.89222   0.71623   0.24205   1.000
    H130    H    0.26390   0.41702   0.06600   1.000
    H131    H    0.76392   0.41700   0.06600   1.000
    C132    C    0.22647   0.70972   0.46284   1.000
    C133    C    0.72647   0.70971   0.46283   1.000
    C134    C    0.16607   0.66608   0.46870   1.000
    C135    C    0.66608   0.66607   0.46869   1.000
    C136    C    0.28472   0.83105   0.50111   1.000
    H137    H    0.30822   0.33417   0.00000   1.000
    H138    H    0.80824   0.33416   0.00000   1.000
    H139    H    0.31956   0.36747   0.09773   1.000
    H140    H    0.81959   0.36744   0.09772   1.000
    H141    H    0.43856   0.42948   0.15250   1.000
    H142    H    0.93858   0.42946   0.15255   1.000
    H143    H    0.03332   0.40990   0.20231   1.000
    H144    H    0.53331   0.40991   0.20230   1.000
    H145    H    0.13839   0.42142   0.29054   1.000
    H146    H    0.63838   0.42143   0.29054   1.000
    H147    H    0.28047   0.57324   0.25879   1.000
    H148    H    0.78046   0.57325   0.25879   1.000
    H149    H    0.17319   0.56133   0.17000   1.000
    H150    H    0.67320   0.56134   0.17000   1.000
    H151    H    0.19851   0.47149   0.39179   1.000
    H152    H    0.69851   0.47149   0.39179   1.000
    H153    H    0.31558   0.46795   0.46656   1.000
    H154    H    0.81558   0.46795   0.46656   1.000
    H155    H    0.49952   0.52432   0.36729   1.000
    H156    H    0.99951   0.52432   0.36729   1.000
    H157    H    0.39228   0.52592   0.28366   1.000
    H158    H    0.89228   0.52592   0.28366   1.000
    C159    C    0.18100   0.32599   0.38171   1.000
    C160    C    0.68101   0.32598   0.38171   1.000
    C161    C    0.09929   0.36450   0.41843   1.000
    C162    C    0.59929   0.36450   0.41844   1.000
    C163    C    0.04255   0.33021   0.44221   1.000
    C164    C    0.54255   0.33021   0.44221   1.000
    C165    C    0.46277   0.35527   0.47625   1.000
    C166    C    0.96278   0.35527   0.47623   1.000
    C167    C    0.40453   0.30568   0.48539   1.000
    C168    C    0.90454   0.30569   0.48539   1.000
    C169    C    0.41376   0.23195   0.44692   1.000
    C170    C    0.91378   0.23196   0.44692   1.000
    C171    C    0.35370   0.18815   0.45295   1.000
    C172    C    0.85371   0.18816   0.45295   1.000
    C173    C    0.28150   0.21639   0.49723   1.000
    C174    C    0.78151   0.21640   0.49723   1.000
    C175    C    0.27355   0.29027   0.53717   1.000
    C176    C    0.77356   0.29028   0.53716   1.000
    C177    C    0.33394   0.33391   0.53130   1.000
    C178    C    0.83396   0.33391   0.53130   1.000
    C179    C    0.21529   0.16894   0.49800   1.000
    C180    C    0.71530   0.16894   0.49889   1.000
    C181    C    0.23582   0.09982   0.48270   1.000
    C182    C    0.73583   0.09983   0.48270   1.000
    C183    C    0.17101   0.05548   0.48110   1.000
    C184    C    0.67102   0.05549   0.48113   1.000
    C185    C    0.06801   0.14192   0.51239   1.000
    C186    C    0.56802   0.14193   0.51239   1.000
    C187    C    0.12869   0.18956   0.51424   1.000
    C188    C    0.62870   0.18956   0.51425   1.000
    C189    C    0.18079   0.05609   0.67445   1.000
    C190    C    0.68080   0.05611   0.67440   1.000
    C191    C    0.09911   0.05417   0.63580   1.000
    C192    C    0.59911   0.05418   0.63580   1.000
    C193    C    0.04230   0.11203   0.66990   1.000
    C194    C    0.54230   0.11204   0.66990   1.000
    C195    C    0.46261   0.12095   0.64470   1.000
    C196    C    0.96262   0.12094   0.64476   1.000
    C197    C    0.40436   0.17953   0.69428   1.000
    C198    C    0.90436   0.17953   0.69427   1.000
    C199    C    0.41360   0.21486   0.76806   1.000
    C200    C    0.91361   0.21486   0.76806   1.000
    C201    C    0.35361   0.26464   0.81180   1.000
    C202    C    0.85361   0.26463   0.81180   1.000
    C203    C    0.28143   0.28057   0.78345   1.000
    C204    C    0.78144   0.28057   0.78344   1.000
    C205    C    0.27343   0.24652   0.70950   1.000
    C206    C    0.77344   0.24651   0.70950   1.000
    C207    C    0.33377   0.19708   0.66594   1.000
    C208    C    0.73590   0.38269   0.89988   1.000
    C209    C    0.17117   0.42551   0.94415   1.000
    C210    C    0.67118   0.42550   0.94410   1.000
    C211    C    0.06812   0.37032   0.85777   1.000
    C212    C    0.56813   0.37032   0.85775   1.000
    C213    C    0.12871   0.32448   0.81021   1.000
    C214    C    0.62872   0.32448   0.81019   1.000
    C215    C    0.18103   0.61829   0.94382   1.000
    C216    C    0.68105   0.61827   0.94380   1.000
    C217    C    0.09930   0.58155   0.94574   1.000
    C218    C    0.59931   0.58154   0.94573   1.000
    C219    C    0.04250   0.55793   0.88783   1.000
    C220    C    0.54251   0.55792   0.88782   1.000
    C221    C    0.46275   0.52386   0.87901   1.000
    C222    C    0.96277   0.52385   0.87901   1.000
    C223    C    0.40449   0.51469   0.82033   1.000
    C224    C    0.90450   0.51469   0.82034   1.000
    C225    C    0.41367   0.55310   0.78487   1.000
    C226    C    0.91368   0.55311   0.78487   1.000
    C227    C    0.35361   0.54702   0.73506   1.000
    C228    C    0.85362   0.54702   0.73507   1.000
    C229    C    0.28144   0.50275   0.71926   1.000
    C230    C    0.78146   0.50273   0.71926   1.000
    C231    C    0.27352   0.46288   0.75343   1.000
    C232    C    0.77354   0.46287   0.75343   1.000
    C233    C    0.33393   0.46878   0.80288   1.000
    C234    C    0.83395   0.46877   0.80288   1.000
    C235    C    0.21525   0.50096   0.67011   1.000
    C236    C    0.71526   0.50096   0.67010   1.000
    C237    C    0.23581   0.51701   0.61697   1.000
    C238    C    0.73582   0.51701   0.61698   1.000
    C239    C    0.17105   0.51854   0.57421   1.000
    C240    C    0.67106   0.51854   0.57422   1.000
    C241    C    0.06800   0.48737   0.62966   1.000
    C242    C    0.56801   0.48735   0.62966   1.000
    C243    C    0.12863   0.48560   0.67549   1.000
    C244    C    0.62864   0.48558   0.67549   1.000
    C245    C    0.31901   0.67399   0.61827   1.000
    C246    C    0.81903   0.67401   0.61831   1.000
    C247    C    0.40073   0.63548   0.58156   1.000
    C248    C    0.90074   0.63548   0.58156   1.000
    C249    C    0.45747   0.66977   0.55777   1.000
    C250    C    0.95749   0.66979   0.55780   1.000
    C251    C    0.03724   0.64472   0.52370   1.000
    C252    C    0.53725   0.64471   0.52376   1.000
    C253    C    0.09549   0.69431   0.51461   1.000
    C254    C    0.59549   0.69429   0.51400   1.000
    C255    C    0.08625   0.76803   0.55308   1.000
    C256    C    0.58626   0.76802   0.55307   1.000
    C257    C    0.14632   0.81184   0.54705   1.000
    C258    C    0.64632   0.81183   0.54704   1.000
    C259    C    0.21851   0.78360   0.50277   1.000
    C260    C    0.71852   0.78358   0.50277   1.000
    C261    C    0.78472   0.83104   0.50110   1.000
    C262    C    0.26420   0.90017   0.51726   1.000
    C263    C    0.76420   0.90016   0.51724   1.000
    C264    C    0.32900   0.94450   0.51887   1.000
    C265    C    0.82901   0.94450   0.51886   1.000
    C266    C    0.43201   0.85807   0.48761   1.000
    C267    C    0.93201   0.85806   0.48761   1.000
    C268    C    0.37133   0.81043   0.48576   1.000
    C269    C    0.87133   0.81042   0.48570   1.000
    C270    C    0.31922   0.94389   0.32555   1.000
    C271    C    0.81924   0.94389   0.32554   1.000
    C272    C    0.40091   0.94582   0.36420   1.000
    C273    C    0.90092   0.94581   0.36419   1.000
    C274    C    0.45771   0.88795   0.33001   1.000
    C275    C    0.95773   0.88795   0.33001   1.000
    C276    C    0.03741   0.87904   0.35523   1.000
    C277    C    0.53741   0.87905   0.35523   1.000
    C278    C    0.09566   0.82046   0.30572   1.000
    C279    C    0.59566   0.82046   0.30572   1.000
    C280    C    0.08642   0.78513   0.23193   1.000
    C281    C    0.58642   0.78513   0.23193   1.000
    C282    C    0.14641   0.73535   0.18800   1.000
    C283    C    0.64641   0.73535   0.18800   1.000
    C284    C    0.21858   0.71942   0.21655   1.000
    C285    C    0.71858   0.71942   0.21655   1.000
    C286    C    0.22659   0.75347   0.29049   1.000
    C287    C    0.72658   0.75347   0.29049   1.000
    C288    C    0.16625   0.80290   0.33406   1.000
    C289    C    0.66624   0.80290   0.33406   1.000
    C290    C    0.28470   0.67028   0.16917   1.000
    C291    C    0.78470   0.67028   0.16917   1.000
    C292    C    0.26412   0.61729   0.10011   1.000
    C293    C    0.76412   0.61729   0.10011   1.000
    C294    C    0.32884   0.57449   0.05584   1.000
    C295    C    0.82885   0.57449   0.05585   1.000
    C296    C    0.43189   0.62967   0.14223   1.000
    C297    C    0.93189   0.62967   0.14224   1.000
    C298    C    0.37131   0.67550   0.18979   1.000
    C299    C    0.87130   0.67550   0.18980   1.000
    C300    C    0.31897   0.38171   0.05618   1.000
    C301    C    0.81899   0.38169   0.05618   1.000
    C302    C    0.40071   0.41845   0.05426   1.000
    C303    C    0.90072   0.41844   0.05426   1.000
    C304    C    0.45751   0.44207   0.11217   1.000
    C305    C    0.95753   0.44205   0.11216   1.000
    C306    C    0.03726   0.47612   0.12098   1.000
    C307    C    0.53726   0.47613   0.12098   1.000
    C308    C    0.09553   0.48529   0.17966   1.000
    C309    C    0.59553   0.48530   0.17966   1.000
    C310    C    0.08635   0.44687   0.21512   1.000
    C311    C    0.58635   0.44688   0.21512   1.000
    C312    C    0.14641   0.45296   0.26493   1.000
    C313    C    0.64641   0.45296   0.26490   1.000
    C314    C    0.21858   0.49724   0.28070   1.000
    C315    C    0.71858   0.49724   0.28073   1.000
    C316    C    0.22649   0.53711   0.24650   1.000
    C317    C    0.72649   0.53711   0.24656   1.000
    C318    C    0.16609   0.53121   0.19711   1.000
    C319    C    0.66609   0.53121   0.19711   1.000
    C320    C    0.28477   0.49902   0.32988   1.000
    C321    C    0.78477   0.49902   0.32988   1.000
    C322    C    0.26421   0.48298   0.38300   1.000
    C323    C    0.76421   0.48297   0.38301   1.000
    C324    C    0.32897   0.48144   0.42578   1.000
    C325    C    0.82897   0.48144   0.42570   1.000
    C326    C    0.43202   0.51262   0.37033   1.000
    C327    C    0.93202   0.51263   0.37033   1.000
    C328    C    0.37139   0.51439   0.32450   1.000
    C329    C    0.87138   0.51440   0.32450   1.000
    N330    N    0.08814   0.07545   0.49557   1.000
    N331    N    0.58814   0.07545   0.49556   1.000
    N332    N    0.08829   0.42002   0.92400   1.000
    N333    N    0.58830   0.42001   0.92419   1.000
    N334    N    0.08816   0.50411   0.57980   1.000
    N335    N    0.58817   0.50411   0.57985   1.000
    N336    N    0.41188   0.92454   0.50440   1.000
    N337    N    0.91188   0.92453   0.50442   1.000
    N338    N    0.41172   0.57997   0.07580   1.000
    N339    N    0.91172   0.57997   0.07581   1.000
    N340    N    0.41186   0.49587   0.42014   1.000
    N341    N    0.91186   0.49588   0.42014   1.000
    O342    O    0.43309   0.41781   0.50019   1.000
    O343    O    0.93310   0.41781   0.50018   1.000
    O344    O    0.08827   0.42542   0.42487   1.000
    O345    O    0.58828   0.42541   0.42488   1.000
    O346    O    0.43307   0.08243   0.58214   1.000
    O347    O    0.93308   0.08241   0.58214   1.000
    O348    O    0.08824   0.99976   0.57489   1.000
    O349    O    0.58825   0.99977   0.57488   1.000
    O350    O    0.43312   0.49987   0.91770   1.000
    O351    O    0.93312   0.49988   0.91773   1.000
    O352    O    0.08833   0.57497   0.00020   1.000
    O353    O    0.58833   0.57496   0.00019   1.000
    O354    O    0.06693   0.58218   0.49980   1.000
    O355    O    0.56693   0.58217   0.49980   1.000
    O356    O    0.41175   0.57457   0.57512   1.000
    O357    O    0.91175   0.57457   0.57510   1.000
    O358    O    0.06694   0.91756   0.41785   1.000
    O359    O    0.56695   0.91757   0.41785   1.000
    O360    O    0.41178   0.00023   0.42511   1.000
    O361    O    0.91179   0.00022   0.42511   1.000
    O362    O    0.06690   0.50012   0.08228   1.000
    O363    O    0.56690   0.50012   0.08227   1.000
    O364    O    0.41169   0.42503   0.99979   1.000
    O365    O    0.91170   0.42503   0.99900   1.000
loop_
    _geom_bond_atom_site_label_1
    _geom_bond_atom_site_label_2
    _geom_bond_distance
    _geom_bond_site_symmetry_2
    _ccdc_geom_bond_type
    H137   C300      1.15856      .   S
    H138   C301      1.15851      .   S
    O353   C218      1.27869  1_554   S
    O353   Zn4       2.13589  1_554   S
    O352   C217      1.27865  1_554   S
    O352   Zn3       2.13593      .   S
    H124   C294      1.08889      .   S
    H125   C295      1.08892      .   S
    C302   C300      1.51500      .   S
    C302   C304      1.41324      .   S
    C302   O364      1.27885  1_554   S
    C303   C301      1.51506      .   S
    C303   C305      1.41318      .   S
    C303   O365      1.29593  1_554   S
    C294   N338      1.34732      .   S
    C294   C292      1.38628      .   S
    C295   N339      1.34729      .   S
    C295   C293      1.38622      .   S
    C300   H130      1.10052      .   S
    C300   H139      1.09642      .   S
    C301   H131      1.10056      .   S
    C301   H140      1.09635      .   S
    N338   C296      1.34630      .   S
    N338   Zn4       2.19039  1_554   S
    N339   C297      1.34632      .   S
    N339   Zn3       2.19027  1_655   S
    H122   C292      1.09160      .   S
    H123   C293      1.09160      .   S
    O363   C307      1.28192      .   S
    O363   Zn4       2.07623  1_554   S
    O362   C306      1.28182      .   S
    O362   Zn3       2.07626      .   S
    C292   C290      1.40631      .   S
    C293   C291      1.40631      .   S
    C305   C306      1.40932  1_655   S
    C305   H142      1.08740      .   S
    C304   C307      1.40948      .   S
    C304   H141      1.08614      .   S
    C307   C309      1.49999      .   S
    C306   C308      1.50000      .   S
    H116   C282      1.08617      .   S
    H117   C283      1.08617      .   S
    C296   H126      1.09026      .   S
    C296   C298      1.39044      .   S
    C297   H127      1.09025      .   S
    C297   C299      1.39045      .   S
    C290   C298      1.40723      .   S
    C290   C284      1.47450      .   S
    C291   C299      1.40727      .   S
    C291   C285      1.47450      .   S
    H149   C318      1.08860      .   S
    H150   C319      1.08863      .   S
    C308   C318      1.40523      .   S
    C308   C310      1.40482      .   S
    C309   C319      1.40523      .   S
    C309   C311      1.40482      .   S
    C283   C285      1.41025      .   S
    C283   C281      1.39093      .   S
    C282   C284      1.41026      .   S
    C282   C280      1.39092      .   S
    C298   H128      1.09000      .   S
    C299   H129      1.08999      .   S
    C318   C316      1.38781      .   S
    C319   C317      1.38877      .   S
    H144   C311      1.08891      .   S
    H143   C310      1.08894      .   S
    H114   C280      1.08885      .   S
    H115   C281      1.08887      .   S
    C311   C313      1.38930      .   S
    C310   C312      1.38975      .   S
    C284   C286      1.40693      .   S
    C285   C287      1.40692      .   S
    C280   C278      1.40499      .   S
    C281   C279      1.40499      .   S
    C316   H147      1.09029      .   S
    C316   C314      1.40766      .   S
    C317   H148      1.09047      .   S
    C317   C315      1.40704      .   S
    C313   C315      1.40781      .   S
    C313   H146      1.09043      .   S
    C312   C314      1.40793      .   S
    C312   H145      1.08992      .   S
    H111   C271      1.09722      .   S
    H110   C270      1.09649      .   S
    H113   C275      1.08730      .   S
    H112   C274      1.08732      .   S
    C314   C320      1.47496      .   S
    C315   C321      1.47458      .   S
    H157   C328      1.09001      .   S
    H158   C329      1.09001      .   S
    C287   H119      1.09028      .   S
    C287   C289      1.38886      .   S
    C286   H118      1.09040      .   S
    C286   C288      1.38886      .   S
    C278   C288      1.40519      .   S
    C278   C276      1.49999      .   S
    C279   C289      1.40518      .   S
    C279   C277      1.49998      .   S
    C328   C320      1.40727      .   S
    C328   C326      1.39050      .   S
    C329   C321      1.40726      .   S
    C329   C327      1.39044      .   S
    C271   H109      1.09860      .   S
    C271   H107      1.10058      .   S
    C271   C273      1.51503      .   S
    C270   H108      1.09863      .   S
    C270   H106      1.10051      .   S
    C270   C272      1.51506      .   S
    C321   C323      1.40613      .   S
    C320   C322      1.40588      .   S
    C275   C276      1.40933  1_655   S
    C275   C273      1.41315      .   S
    C274   C277      1.40949      .   S
    C274   C272      1.41317      .   S
    C288   H120      1.08783      .   S
    C289   H121      1.08783      .   S
    H7     C159      1.09825      .   S
    H8     C160      1.09804      .   S
    C276   O358      1.28181      .   S
    C277   O359      1.28183      .   S
    C273   O361      1.27895  1_565   S
    C272   O360      1.27885  1_565   S
    H155   C326      1.09022      .   S
    H156   C327      1.09024      .   S
    H9     C159      1.09642      .   S
    H10    C160      1.09640      .   S
    C327   N341      1.34625      .   S
    C326   N340      1.34626      .   S
    C159   H5        1.10054      .   S
    C159   C161      1.51483      .   S
    C160   H6        1.10063      .   S
    C160   C162      1.51489      .   S
    C322   H151      1.09166      .   S
    C322   C324      1.38643      .   S
    C323   H152      1.09159      .   S
    C323   C325      1.38502      .   S
    H14    C170      1.08885      .   S
    H13    C169      1.08890      .   S
    O359   Zn2       2.08015  1_565   S
    O358   Zn1       2.08013      .   S
    C161   O344      1.27877      .   S
    C161   C163      1.41309      .   S
    C162   O345      1.27876      .   S
    C162   C164      1.41305      .   S
    N340   C324      1.34725      .   S
    N340   Zn0       2.18598      .   S
    N341   C325      1.34689      .   S
    N341   Zn32      2.18575  1_655   S
    H16    C172      1.08989      .   S
    H15    C171      1.08990      .   S
    O344   Zn32      2.13722      .   S
    O345   Zn0       2.13720      .   S
    O361   Zn1       2.13787  1_645   S
    O360   Zn2       2.13797      .   S
    C325   H154      1.09036      .   S
    C324   H153      1.08867      .   S
    H91    C133      1.09040      .   S
    H90    C132      1.09042      .   S
    H11    C163      1.08719      .   S
    H12    C164      1.08726      .   S
    H93    C135      1.08778      .   S
    H92    C134      1.08780      .   S
    C164   C165      1.40936      .   S
    C163   C166      1.40916  1_455   S
    C169   C171      1.38964      .   S
    C169   C167      1.40482      .   S
    C170   C172      1.38971      .   S
    C170   C168      1.40483      .   S
    C172   C174      1.40777      .   S
    C171   C173      1.40777      .   S
    C133   C135      1.38884      .   S
    C133   C260      1.40693      .   S
    C132   C134      1.38879      .   S
    C132   C259      1.40694      .   S
    H24    C184      1.08880      .   S
    H23    C183      1.08905      .   S
    C135   C254      1.39870      .   S
    C134   C253      1.40508      .   S
    H22    C182      1.09150      .   S
    H21    C181      1.09151      .   S
    H105   C269      1.09029      .   S
    H104   C268      1.09000      .   S
    H99    C267      1.09022      .   S
    H98    C266      1.09024      .   S
    C166   C168      1.49980      .   S
    C166   O343      1.28188      .   S
    C165   C167      1.49974      .   S
    C165   O342      1.28189      .   S
    C183   C181      1.38618      .   S
    C183   N330      1.34726      .   S
    C184   C182      1.38645      .   S
    C184   N331      1.34719      .   S
    C182   C180      1.40602      .   S
    C181   C179      1.41167      .   S
    C168   C178      1.40507      .   S
    C167   C177      1.40512      .   S
    C269   C267      1.39000      .   S
    C269   C261      1.40723      .   S
    C268   C266      1.39035      .   S
    C268   C136      1.40715      .   S
    C267   N337      1.34628      .   S
    C266   N336      1.34645      .   S
    N331   Zn2       2.18271      .   S
    N331   C186      1.34622      .   S
    N330   Zn1       2.18267  1_545   S
    N330   C185      1.34620      .   S
    C174   C180      1.47442      .   S
    C174   C176      1.40692      .   S
    C173   C179      1.46725      .   S
    C173   C175      1.40695      .   S
    C179   C187      1.40880      .   S
    C180   C188      1.40716      .   S
    O354   Zn32      2.07722      .   S
    O354   C251      1.28199      .   S
    O355   Zn0       2.07726      .   S
    O355   C252      1.28185      .   S
    Zn32   O343      2.07711  1_455   S
    Zn32   O357      2.13697  1_455   S
    Zn32   N334      2.18520      .   S
    Zn0    O342      2.07715      .   S
    Zn0    O356      2.13722      .   S
    Zn0    N335      2.18581      .   S
    Zn1    N337      2.18270  1_455   S
    Zn1    O348      2.13826      .   S
    Zn1    O347      2.07966  1_465   S
    Zn2    N336      2.18256  1_545   S
    Zn2    O349      2.13810  1_545   S
    Zn2    O346      2.07978      .   S
    C261   C260      1.47449      .   S
    C261   C263      1.40629      .   S
    C136   C259      1.47446      .   S
    C136   C262      1.40629      .   S
    C259   C257      1.40772      .   S
    C260   C258      1.40773      .   S
    N336   C264      1.34726      .   S
    N337   C265      1.34720      .   S
    C185   C187      1.39040      .   S
    C185   H25       1.09021      .   S
    C186   C188      1.39034      .   S
    C186   H26       1.09022      .   S
    C254   C252      1.50629      .   S
    C254   C256      1.40524      .   S
    C187   H27       1.08997      .   S
    C188   H28       1.08999      .   S
    C253   C251      1.49932      .   S
    C253   C255      1.40483      .   S
    C263   C265      1.38612      .   S
    C263   H95       1.09153      .   S
    C262   C264      1.38609      .   S
    C262   H94       1.09154      .   S
    C265   H97       1.08883      .   S
    C264   H96       1.08884      .   S
    C251   C250      1.40953  1_455   S
    C252   C249      1.40928      .   S
    C178   C176      1.38887      .   S
    C178   H20       1.08778      .   S
    C177   C175      1.38888      .   S
    C177   H19       1.08773      .   S
    H72    C239      1.08881      .   S
    H73    C240      1.08885      .   S
    C176   H18       1.09045      .   S
    C175   H17       1.09035      .   S
    C258   C256      1.38967      .   S
    C258   H89       1.08991      .   S
    C257   C255      1.38966      .   S
    C257   H88       1.08984      .   S
    C256   H87       1.08834      .   S
    C255   H86       1.08888      .   S
    C249   H84       1.08726      .   S
    C249   C247      1.41316      .   S
    C250   H85       1.08727      .   S
    C250   C248      1.41308      .   S
    C239   N334      1.34703      .   S
    C239   C237      1.38609      .   S
    C240   N335      1.34718      .   S
    C240   C238      1.38602      .   S
    O349   C192      1.27896  1_565   S
    O348   C191      1.27887  1_565   S
    O357   C248      1.27862      .   S
    O356   C247      1.27877      .   S
    N334   C241      1.34716      .   S
    N335   C242      1.34641      .   S
    C247   C245      1.51484      .   S
    C248   C246      1.51489      .   S
    O346   C195      1.28085      .   S
    O347   C196      1.28187      .   S
    H78    C245      1.10051      .   S
    H79    C246      1.10059      .   S
    H70    C237      1.09153      .   S
    H71    C238      1.09154      .   S
    H45    C100      1.08783      .   S
    H44    C207      1.08783      .   S
    C237   C235      1.40623      .   S
    C238   C236      1.40597      .   S
    C245   H82       1.09644      .   S
    C245   H80       1.09819      .   S
    C246   H83       1.09941      .   S
    C246   H81       1.09811      .   S
    C242   H75       1.09022      .   S
    C242   C244      1.39040      .   S
    C241   H74       1.09027      .   S
    C241   C243      1.39050      .   S
    C192   C194      1.41300      .   S
    C192   C190      1.51448      .   S
    C191   C193      1.41299      .   S
    C191   C189      1.51500      .   S
    C195   C194      1.40927      .   S
    C195   C197      1.50042      .   S
    C196   C193      1.40851  1_655   S
    C196   C198      1.49999      .   S
    H30    C190      1.10013      .   S
    H29    C189      1.10043      .   S
    C100   C198      1.40516      .   S
    C100   C206      1.38887      .   S
    C207   C197      1.40520      .   S
    C207   C205      1.38879      .   S
    C193   H36       1.08850      .   S
    C194   H37       1.08845      .   S
    C236   C244      1.40732      .   S
    C236   C230      1.47485      .   S
    C235   C243      1.40726      .   S
    C235   C229      1.47452      .   S
    H33    C190      1.19895      .   S
    H31    C189      1.19918      .   S
    C190   H35       1.09709      .   S
    C189   H34       1.09648      .   S
    C243   H76       1.08998      .   S
    C244   H77       1.09003      .   S
    H43    C206      1.09052      .   S
    H42    C205      1.09042      .   S
    C198   C200      1.40499      .   S
    C197   C199      1.40480      .   S
    H65    C228      1.08994      .   S
    H64    C227      1.08987      .   S
    C205   C203      1.40712      .   S
    C206   C204      1.40692      .   S
    C229   C227      1.40785      .   S
    C229   C231      1.40702      .   S
    C230   C228      1.40787      .   S
    C230   C232      1.40689      .   S
    C227   C225      1.38978      .   S
    C228   C226      1.38967      .   S
    H67    C232      1.08998      .   S
    H66    C231      1.09046      .   S
    C231   C233      1.38879      .   S
    C232   C234      1.38883      .   S
    H53    C214      1.08997      .   S
    H52    C213      1.09002      .   S
    C200   H39       1.08885      .   S
    C200   C202      1.38970      .   S
    C199   H38       1.08900      .   S
    C199   C201      1.38968      .   S
    C204   C202      1.40789      .   S
    C204   C102      1.47451      .   S
    C203   C201      1.40779      .   S
    C203   C101      1.47450      .   S
    C225   H62       1.08913      .   S
    C225   C223      1.40477      .   S
    C226   H63       1.08891      .   S
    C226   C224      1.40490      .   S
    C233   C223      1.40524      .   S
    C233   H68       1.08781      .   S
    C234   C224      1.40523      .   S
    C234   H69       1.08785      .   S
    C214   C102      1.40728      .   S
    C214   C212      1.39046      .   S
    C213   C101      1.40724      .   S
    C213   C211      1.39044      .   S
    C202   H41       1.08985      .   S
    C201   H40       1.08850      .   S
    C223   C221      1.49993      .   S
    C224   C222      1.49988      .   S
    C102   C208      1.40630      .   S
    C101   C103      1.40633      .   S
    H51    C212      1.09024      .   S
    H50    C211      1.09026      .   S
    H61    C220      1.08741      .   S
    H60    C219      1.08738      .   S
    C212   N333      1.34641      .   S
    C211   N332      1.34341      .   S
    C222   C219      1.40931  1_655   S
    C222   O351      1.28200      .   S
    C221   C220      1.40946      .   S
    C221   O350      1.28165      .   S
    C220   C218      1.41321      .   S
    C219   C217      1.41320      .   S
    C208   H47       1.09159      .   S
    C208   C210      1.38591      .   S
    C103   H46       1.09156      .   S
    C103   C209      1.38621      .   S
    H59    C216      1.09642      .   S
    H58    C215      1.09652      .   S
    O350   Zn4       2.07643      .   S
    O351   Zn3       2.07605  1_656   S
    N332   C209      1.34848      .   S
    N332   Zn3       2.19181  1_556   S
    N333   C210      1.34701      .   S
    N333   Zn4       2.19028      .   S
    H55    C216      1.10052      .   S
    H54    C215      1.10056      .   S
    C216   C218      1.51503      .   S
    C216   H57       1.09775      .   S
    C215   C217      1.51504      .   S
    C215   H56       1.09749      .   S
    C210   H49       1.08946      .   S
    C209   H48       1.08893      .   S
    O365   Zn3       2.12920  1_656   S
    O364   Zn4       2.13584      .   S
