# CIF file generated by openbabel 2.4.90, see http://openbabel.sf.net
data_I
_chemical_name_common ''
_cell_length_a 15.556
_cell_length_b 21.857
_cell_length_c 21.842
_cell_angle_alpha 119.901
_cell_angle_beta 89.952
_cell_angle_gamma 90.044
_space_group_name_H-M_alt 'P 1'
_space_group_name_Hall 'P 1'
loop_
    _symmetry_equiv_pos_as_xyz
    x,y,z
loop_
    _atom_site_label
    _atom_site_type_symbol
    _atom_site_fract_x
    _atom_site_fract_y
    _atom_site_fract_z
    _atom_site_occupancy
    Zr0     Zr   0.00000   0.50000   0.49999   1.000
    Zr1     Zr   0.50001   0.49999   0.50000   1.000
    Zr2     Zr   0.00000   1.00000   0.50000   1.000
    Zr3     Zr   0.50000   0.00001   0.50000   1.000
    Zr4     Zr   0.00001   0.50000   0.00000   1.000
    Zr5     Zr   0.50001   0.49999   0.99999   1.000
    N6      N    0.36372   0.22690   0.75764   1.000
    O7      O    0.20394   0.34346   0.85982   1.000
    N8      N    0.36378   0.53051   0.77280   1.000
    O9      O    0.20393   0.51628   0.65635   1.000
    N10     N    0.63624   0.46948   0.22701   1.000
    O11     O    0.79608   0.48371   0.34354   1.000
    N12     N    0.63623   0.75767   0.53054   1.000
    O13     O    0.79608   0.85997   0.51638   1.000
    N14     N    0.86378   0.53051   0.77281   1.000
    O15     O    0.70394   0.51628   0.65637   1.000
    N16     N    0.63630   0.77293   0.24234   1.000
    O17     O    0.79608   0.65646   0.14012   1.000
    N18     N    0.13630   0.77293   0.24233   1.000
    O19     O    0.29608   0.65646   0.14011   1.000
    N20     N    0.86380   0.24231   0.46942   1.000
    O21     O    0.70394   0.14002   0.48360   1.000
    N22     N    0.36379   0.24230   0.46939   1.000
    O23     O    0.20393   0.14001   0.48359   1.000
    N24     N    0.86372   0.22690   0.75765   1.000
    O25     O    0.70394   0.34345   0.85987   1.000
    N26     N    0.13623   0.75768   0.53056   1.000
    O27     O    0.29609   0.85998   0.51638   1.000
    N28     N    0.13625   0.46947   0.22699   1.000
    O29     O    0.29609   0.48370   0.34353   1.000
    O30     O    0.06549   0.87619   0.35154   1.000
    O31     O    0.93453   0.12372   0.64845   1.000
    O32     O    0.56549   0.87619   0.35154   1.000
    O33     O    0.43453   0.12373   0.64845   1.000
    O34     O    0.56545   0.64843   0.52464   1.000
    O35     O    0.43457   0.35155   0.47533   1.000
    O36     O    0.93457   0.52461   0.87614   1.000
    O37     O    0.06545   0.47538   0.12366   1.000
    O38     O    0.06545   0.64843   0.52464   1.000
    O39     O    0.93457   0.35156   0.47534   1.000
    O40     O    0.43457   0.52461   0.87613   1.000
    O41     O    0.56545   0.47538   0.12376   1.000
loop_
    _geom_bond_atom_site_label_1
    _geom_bond_atom_site_label_2
    _geom_bond_distance
    _geom_bond_site_symmetry_2
    _ccdc_geom_bond_type
    N6     O7        3.46137      .   S
    Zr4    O7        4.54981  1_554   S
    N8     O9        3.45983      .   S
    Zr0    O9        4.54511      .   S
    N10    O11       3.46087      .   S
    Zr0    O11       4.54642  1_455   S
    N12    O13       3.45814      .   S
    Zr2    O13       4.54229  1_455   S
    N14    O15       3.45959      .   S
    Zr1    O15       4.54515      .   S
    N16    O17       3.46087      .   S
    Zr4    O17       4.54866  1_455   S
    N18    O19       3.46086      .   S
    Zr5    O19       4.54873  1_556   S
    N20    O21       3.45822      .   S
    Zr3    O21       4.54240      .   S
    N22    O23       3.45837      .   S
    Zr2    O23       4.54253  1_565   S
    N24    O25       3.46160      .   S
    Zr5    O25       4.54942      .   S
    N26    O27       3.45823      .   S
    Zr3    O27       4.54232  1_545   S
    N28    O29       3.46109      .   S
    Zr1    O29       4.54677      .   S
    Zr2    O30       3.18217      .   S
    N18    O30       2.57460      .   S
    Zr2    O31       3.18124  1_465   S
    N24    O31       2.57372      .   S
    Zr3    O32       3.18214  1_545   S
    N16    O32       2.57458      .   S
    Zr3    O33       3.18118      .   S
    N6     O33       2.57368      .   S
    Zr1    O34       3.17918      .   S
    N12    O34       2.57286      .   S
    Zr1    O35       3.17893      .   S
    N22    O35       2.57260      .   S
    Zr4    O36       3.17812  1_454   S
    N14    O36       2.57266      .   S
    Zr4    O37       3.17412      .   S
    N28    O37       2.57270      .   S
    Zr0    O38       3.17917      .   S
    N26    O38       2.57283      .   S
    Zr0    O39       3.17904  1_455   S
    N20    O39       2.57272      .   S
    Zr5    O40       3.17814      .   S
    N8     O40       2.57261      .   S
    Zr5    O41       3.17639  1_556   S
    N10    O41       2.57099      .   S
