# CIF file generated by openbabel 2.4.90, see http://openbabel.sf.net
data_I
_chemical_name_common ''
_cell_length_a 12.488
_cell_length_b 13.572
_cell_length_c 18.219
_cell_angle_alpha 106.039
_cell_angle_beta 89.968
_cell_angle_gamma 90.044
_space_group_name_H-M_alt 'P 1'
_space_group_name_Hall 'P 1'
loop_
    _symmetry_equiv_pos_as_xyz
    x,y,z
loop_
    _atom_site_label
    _atom_site_type_symbol
    _atom_site_fract_x
    _atom_site_fract_y
    _atom_site_fract_z
    _atom_site_occupancy
    Zn0     Zn   0.68975   0.74977   0.75020   1.000
    Zn1     Zn   0.31025   0.25021   0.24983   1.000
    Zn2     Zn   0.81025   0.25020   0.24983   1.000
    Zn3     Zn   0.18975   0.74978   0.75020   1.000
    C4      C    0.13670   0.92564   0.86411   1.000
    C5      C    0.63669   0.92549   0.86412   1.000
    C6      C    0.13480   0.57417   0.63698   1.000
    C7      C    0.63480   0.57417   0.63697   1.000
    C8      C    0.36332   0.07441   0.13593   1.000
    C9      C    0.86332   0.07431   0.13590   1.000
    C10     C    0.36520   0.42580   0.36306   1.000
    C11     C    0.86520   0.42580   0.36306   1.000
    O12     O    0.21766   0.96125   0.84040   1.000
    O13     O    0.71774   0.96098   0.84046   1.000
    O14     O    0.09692   0.83472   0.83175   1.000
    O15     O    0.59686   0.83460   0.83176   1.000
    O16     O    0.21339   0.53739   0.66241   1.000
    O17     O    0.71339   0.53739   0.66240   1.000
    O18     O    0.09683   0.66614   0.66798   1.000
    O19     O    0.59683   0.66615   0.66790   1.000
    O20     O    0.28230   0.03887   0.15958   1.000
    O21     O    0.78236   0.03869   0.15962   1.000
    O22     O    0.40311   0.16533   0.16828   1.000
    O23     O    0.90307   0.16524   0.16830   1.000
    O24     O    0.28662   0.46259   0.33760   1.000
    O25     O    0.78662   0.46259   0.33762   1.000
    O26     O    0.40317   0.33383   0.33207   1.000
    O27     O    0.90317   0.33383   0.33207   1.000
    Ts28    Ts   0.72687   0.76709   0.72797   1.000
    Ts29    Ts   0.72657   0.73218   0.77247   1.000
    Ts30    Ts   0.27313   0.23288   0.27205   1.000
    Ts31    Ts   0.27343   0.26779   0.22756   1.000
    Ts32    Ts   0.77313   0.23288   0.27206   1.000
    Ts33    Ts   0.77343   0.26778   0.22756   1.000
    Ts34    Ts   0.22687   0.76711   0.72798   1.000
    Ts35    Ts   0.22657   0.73219   0.77247   1.000
    Og36    Og   0.11745   0.94624   0.88814   1.000
    Og37    Og   0.61744   0.94613   0.88815   1.000
    Og38    Og   0.11588   0.55361   0.61277   1.000
    Og39    Og   0.61588   0.55360   0.61277   1.000
    Og40    Og   0.38258   0.05379   0.11190   1.000
    Og41    Og   0.88257   0.05371   0.11188   1.000
    Og42    Og   0.38412   0.44637   0.38726   1.000
    Og43    Og   0.88412   0.44637   0.38727   1.000
loop_
    _geom_bond_atom_site_label_1
    _geom_bond_atom_site_label_2
    _geom_bond_distance
    _geom_bond_site_symmetry_2
    _ccdc_geom_bond_type
    C9     O21       1.24769      .   S
    C9     O23       1.30952      .   S
    C8     O20       1.24725      .   S
    C8     O22       1.30931      .   S
    O22    Zn1       1.98336      .   S
    O23    Zn2       1.98325      .   S
    Zn2    O27       1.98496      .   S
    Zn1    O26       1.98490      .   S
    O27    C11       1.30882      .   S
    O26    C10       1.30883      .   S
    O24    C10       1.24760      .   S
    O25    C11       1.24742      .   S
    C7     O17       1.24739      .   S
    C7     O19       1.30862      .   S
    C6     O16       1.24738      .   S
    C6     O18       1.30884      .   S
    O19    Zn0       1.98557      .   S
    O18    Zn3       1.98477      .   S
    Zn0    O15       1.98344      .   S
    Zn3    O14       1.98339      .   S
    O14    C4        1.30936      .   S
    O15    C5        1.30932      .   S
    O12    C4        1.24755      .   S
    O13    C5        1.24727      .   S
    Zn0    Ts28      0.69753      .   S
    Zn0    Ts29      0.69780      .   S
    Zn1    Ts30      0.69742      .   S
    Zn1    Ts31      0.69776      .   S
    Zn2    Ts32      0.69741      .   S
    Zn2    Ts33      0.69778      .   S
    Zn3    Ts34      0.69736      .   S
    Zn3    Ts35      0.69783      .   S
    C4     Og36      0.50985      .   S
    C5     Og37      0.51000      .   S
    C6     Og38      0.51013      .   S
    C7     Og39      0.51011      .   S
    C8     Og40      0.50999      .   S
    C9     Og41      0.50979      .   S
    C10    Og42      0.51010      .   S
    C11    Og43      0.51012      .   S
