# CIF file generated by openbabel 2.4.90, see http://openbabel.sf.net
data_I
_chemical_name_common ''
_cell_length_a 12.488
_cell_length_b 13.572
_cell_length_c 18.219
_cell_angle_alpha 106.039
_cell_angle_beta 89.968
_cell_angle_gamma 90.044
_space_group_name_H-M_alt 'P 1'
_space_group_name_Hall 'P 1'
loop_
    _symmetry_equiv_pos_as_xyz
    x,y,z
loop_
    _atom_site_label
    _atom_site_type_symbol
    _atom_site_fract_x
    _atom_site_fract_y
    _atom_site_fract_z
    _atom_site_occupancy
    N0      N    0.50000   0.49999   0.50002   1.000
    N1      N    0.00000   0.49999   0.50002   1.000
    N2      N    0.50002   0.99998   0.00002   1.000
    N3      N    0.24999   0.49998   0.99980   1.000
    N4      N    0.00002   0.99998   0.00003   1.000
    N5      N    0.74999   0.99999   0.50001   1.000
    N6      N    0.25000   0.99999   0.49999   1.000
    N7      N    0.75000   0.49998   0.99998   1.000
    Zr8     Zr   0.84486   0.25010   0.24949   1.000
    O9      O    0.89582   0.36421   0.34959   1.000
    O10     O    0.89548   0.13589   0.14972   1.000
    O11     O    0.92357   0.18110   0.32053   1.000
    O12     O    0.92368   0.31919   0.17880   1.000
    Zr13    Zr   0.34485   0.25015   0.24948   1.000
    O14     O    0.39548   0.13594   0.14972   1.000
    O15     O    0.39582   0.36423   0.34958   1.000
    O16     O    0.42357   0.18112   0.32053   1.000
    O17     O    0.42368   0.31922   0.17884   1.000
    Zr18    Zr   0.15515   0.74987   0.75055   1.000
    O19     O    0.10418   0.63576   0.65045   1.000
    O20     O    0.10454   0.86407   0.85032   1.000
    O21     O    0.07632   0.68078   0.82117   1.000
    O22     O    0.07643   0.81887   0.67949   1.000
    Zr23    Zr   0.65515   0.74979   0.75054   1.000
    O24     O    0.60453   0.86400   0.85032   1.000
    O25     O    0.57643   0.81883   0.67948   1.000
    O26     O    0.57632   0.68074   0.82112   1.000
    O27     O    0.60418   0.63572   0.65044   1.000
loop_
    _geom_bond_atom_site_label_1
    _geom_bond_atom_site_label_2
    _geom_bond_distance
    _geom_bond_site_symmetry_2
    _ccdc_geom_bond_type
    Zr8    O9        2.13751      .   S
    N1     O9        3.13198  1_455   S
    Zr8    O10       2.13294      .   S
    N4     O10       3.12479  1_465   S
    Zr8    O11       2.04724      .   S
    N6     O11       6.14977  1_465   S
    Zr8    O12       2.04240      .   S
    N3     O12       6.13629  1_456   S
    Zr13   O14       2.13292      .   S
    N2     O14       3.12504  1_565   S
    Zr13   O15       2.13735      .   S
    N0     O15       3.13187      .   S
    Zr13   O16       2.04757      .   S
    N5     O16       6.15021  1_565   S
    Zr13   O17       2.04153      .   S
    N7     O17       6.13447  1_556   S
    Zr18   O19       2.13743      .   S
    N1     O19       3.13191      .   S
    Zr18   O20       2.13289      .   S
    N4     O20       3.12493  1_554   S
    Zr18   O21       2.04152      .   S
    N7     O21       6.13407  1_655   S
    Zr18   O22       2.04745      .   S
    N5     O22       6.15022  1_655   S
    Zr23   O24       2.13303      .   S
    N2     O24       3.12517  1_554   S
    Zr23   O25       2.04787      .   S
    N6     O25       6.15066      .   S
    Zr23   O26       2.04061      .   S
    N3     O26       6.13221      .   S
    Zr23   O27       2.13720      .   S
    N0     O27       3.13172      .   S
