# CIF file generated by openbabel 2.4.90, see http://openbabel.sf.net
data_I
_chemical_name_common ''
_cell_length_a 22.113
_cell_length_b 22.118
_cell_length_c 14.068
_cell_angle_alpha 88.045
_cell_angle_beta 90.645
_cell_angle_gamma 80.131
_space_group_name_H-M_alt 'P 1'
_space_group_name_Hall 'P 1'
loop_
    _symmetry_equiv_pos_as_xyz
    x,y,z
loop_
    _atom_site_label
    _atom_site_type_symbol
    _atom_site_fract_x
    _atom_site_fract_y
    _atom_site_fract_z
    _atom_site_occupancy
    N0      N    0.37019   0.91951   0.71072   1.000
    N1      N    0.37003   0.41959   0.71071   1.000
    N2      N    0.86844   0.16761   0.20574   1.000
    N3      N    0.87003   0.66749   0.20625   1.000
    N4      N    0.36854   0.16797   0.20626   1.000
    N5      N    0.37000   0.66756   0.20578   1.000
    N6      N    0.13001   0.08055   0.28885   1.000
    N7      N    0.61752   0.16936   0.70250   1.000
    N8      N    0.86998   0.91944   0.71114   1.000
    N9      N    0.61852   0.66865   0.70257   1.000
    N10     N    0.11849   0.66878   0.70317   1.000
    N11     N    0.87046   0.41945   0.71109   1.000
    N12     N    0.11746   0.16910   0.70311   1.000
    N13     N    0.12953   0.58053   0.28883   1.000
    N14     N    0.62977   0.08037   0.28932   1.000
    N15     N    0.63003   0.58032   0.28908   1.000
    N16     N    0.38150   0.33134   0.29739   1.000
    N17     N    0.38245   0.83061   0.29751   1.000
    N18     N    0.88154   0.33089   0.29677   1.000
    N19     N    0.88251   0.83086   0.29688   1.000
    N20     N    0.12996   0.33249   0.79327   1.000
    N21     N    0.13154   0.83225   0.79391   1.000
    N22     N    0.63001   0.33241   0.79388   1.000
    N23     N    0.63145   0.83201   0.79332   1.000
    Zr24    Zr   0.63235   0.83045   0.29382   1.000
    O25     O    0.63259   0.83057   0.46243   1.000
    O26     O    0.63150   0.83136   0.12487   1.000
    Zr27    Zr   0.13142   0.33070   0.29380   1.000
    O28     O    0.13050   0.33167   0.12483   1.000
    O29     O    0.13137   0.33093   0.46240   1.000
    Zr30    Zr   0.86799   0.16938   0.70583   1.000
    O31     O    0.86771   0.16913   0.53704   1.000
    O32     O    0.86858   0.16845   0.87461   1.000
    Zr33    Zr   0.86858   0.66929   0.70617   1.000
    O34     O    0.86863   0.66906   0.53745   1.000
    O35     O    0.86950   0.66832   0.87502   1.000
    Zr36    Zr   0.63141   0.33059   0.29417   1.000
    O37     O    0.63048   0.33153   0.12529   1.000
    O38     O    0.63140   0.33088   0.46285   1.000
    Zr39    Zr   0.13199   0.83060   0.29417   1.000
    O40     O    0.13141   0.83150   0.12530   1.000
    O41     O    0.13227   0.83081   0.46287   1.000
    Zr42    Zr   0.36861   0.66931   0.70579   1.000
    O43     O    0.36954   0.66839   0.87459   1.000
    O44     O    0.36861   0.66905   0.53703   1.000
    Zr45    Zr   0.36761   0.16950   0.70616   1.000
    O46     O    0.36848   0.16859   0.87501   1.000
    O47     O    0.36737   0.16938   0.53744   1.000
    O48     O    0.29335   0.17009   0.70514   1.000
    O49     O    0.94196   0.16881   0.70471   1.000
    O50     O    0.63309   0.75603   0.29263   1.000
    O51     O    0.55826   0.83090   0.29509   1.000
    O52     O    0.70662   0.82985   0.29484   1.000
    O53     O    0.63045   0.90466   0.29154   1.000
    O54     O    0.29436   0.66985   0.70477   1.000
    O55     O    0.94269   0.66869   0.70515   1.000
    O56     O    0.13261   0.75622   0.29276   1.000
    O57     O    0.12969   0.40489   0.29130   1.000
    O58     O    0.86764   0.74368   0.70744   1.000
    O59     O    0.86968   0.09517   0.70838   1.000
    O60     O    0.44272   0.66866   0.70459   1.000
    O61     O    0.36776   0.74371   0.70706   1.000
    O62     O    0.37023   0.59515   0.70824   1.000
    O63     O    0.44170   0.16905   0.70490   1.000
    O64     O    0.36952   0.09527   0.70846   1.000
    O65     O    0.36690   0.24390   0.70730   1.000
    O66     O    0.20634   0.82985   0.29538   1.000
    O67     O    0.05802   0.83117   0.29529   1.000
    O68     O    0.13031   0.90482   0.29162   1.000
    O69     O    0.62983   0.40475   0.29168   1.000
    O70     O    0.79434   0.66980   0.70487   1.000
    O71     O    0.87031   0.59510   0.70861   1.000
    O72     O    0.70567   0.32991   0.29520   1.000
    O73     O    0.05732   0.33122   0.29480   1.000
    O74     O    0.79363   0.17013   0.70462   1.000
    O75     O    0.86737   0.24376   0.70722   1.000
    O76     O    0.55730   0.33128   0.29536   1.000
    O77     O    0.20566   0.33019   0.29510   1.000
    O78     O    0.63225   0.25618   0.29291   1.000
    O79     O    0.13235   0.25631   0.29253   1.000
loop_
    _geom_bond_atom_site_label_1
    _geom_bond_atom_site_label_2
    _geom_bond_distance
    _geom_bond_site_symmetry_2
    _ccdc_geom_bond_type
    Zr24   O25       2.37210      .   S
    N23    O25       4.65640      .   S
    Zr24   O26       2.37608      .   S
    N23    O26       4.66374  1_556   S
    Zr27   O28       2.37621      .   S
    N20    O28       4.66380  1_556   S
    Zr27   O29       2.37211      .   S
    N20    O29       4.65628      .   S
    Zr30   O31       2.37467      .   S
    N2     O31       4.66223      .   S
    Zr30   O32       2.37368      .   S
    N2     O32       4.65771  1_554   S
    Zr33   O34       2.37372      .   S
    N3     O34       4.66110      .   S
    Zr33   O35       2.37460      .   S
    N3     O35       4.65898  1_554   S
    Zr36   O37       2.37493      .   S
    N22    O37       4.66159  1_556   S
    Zr36   O38       2.37332      .   S
    N22    O38       4.65855      .   S
    Zr39   O40       2.37492      .   S
    N21    O40       4.66158  1_556   S
    Zr39   O41       2.37331      .   S
    N21    O41       4.65845      .   S
    Zr42   O43       2.37396      .   S
    N5     O43       4.65851  1_554   S
    Zr42   O44       2.37420      .   S
    N5     O44       4.66171      .   S
    Zr45   O46       2.37465      .   S
    N4     O46       4.65945  1_554   S
    Zr45   O47       2.37354      .   S
    N4     O47       4.66066      .   S
    N12    O48       3.89292      .   S
    Zr45   O48       1.63992      .   S
    N12    O49       3.88228  1_455   S
    Zr30   O49       1.63378      .   S
    Zr24   O50       1.64380      .   S
    N15    O50       3.90053      .   S
    Zr24   O51       1.63693      .   S
    N17    O51       3.88948      .   S
    Zr24   O52       1.64005      .   S
    N19    O52       3.89316      .   S
    Zr24   O53       1.63394      .   S
    N14    O53       3.88301  1_545   S
    N10    O54       3.89294      .   S
    Zr42   O54       1.63971      .   S
    N10    O55       3.88827  1_455   S
    Zr33   O55       1.63686      .   S
    N13    O56       3.90052      .   S
    Zr39   O56       1.64360      .   S
    N13    O57       3.88320      .   S
    Zr27   O57       1.63397      .   S
    N8     O58       3.89876      .   S
    Zr33   O58       1.64258      .   S
    N8     O59       3.88454  1_565   S
    Zr30   O59       1.63462      .   S
    Zr42   O60       1.63678      .   S
    N9     O60       3.88771      .   S
    Zr42   O61       1.64320      .   S
    N0     O61       3.90008      .   S
    Zr42   O62       1.63375      .   S
    N1     O62       3.88270      .   S
    Zr45   O63       1.63700      .   S
    N7     O63       3.88965      .   S
    Zr45   O64       1.63433      .   S
    N0     O64       3.88391  1_565   S
    Zr45   O65       1.64362      .   S
    N1     O65       3.90022      .   S
    Zr39   O66       1.64137      .   S
    N17    O66       3.89684      .   S
    Zr39   O67       1.63384      .   S
    N19    O67       3.88242  1_655   S
    Zr39   O68       1.63467      .   S
    N6     O68       3.88466  1_545   S
    N15    O69       3.88296      .   S
    Zr36   O69       1.63389      .   S
    Zr33   O70       1.63948      .   S
    N9     O70       3.89234      .   S
    Zr33   O71       1.63404      .   S
    N11    O71       3.88330      .   S
    N18    O72       3.89260      .   S
    Zr36   O72       1.63955      .   S
    N18    O73       3.88851  1_655   S
    Zr27   O73       1.63697      .   S
    Zr30   O74       1.64147      .   S
    N7     O74       3.89705      .   S
    Zr30   O75       1.64359      .   S
    N11    O75       3.90052      .   S
    N16    O76       3.88760      .   S
    Zr36   O76       1.63669      .   S
    N16    O77       3.89257      .   S
    Zr27   O77       1.63959      .   S
    Zr36   O78       1.64345      .   S
    N14    O78       3.90022      .   S
    Zr27   O79       1.64257      .   S
    N6     O79       3.89877      .   S
