# CIF file generated by openbabel 2.4.90, see http://openbabel.sf.net
data_I
_chemical_name_common ''
_cell_length_a 22.113
_cell_length_b 22.118
_cell_length_c 14.068
_cell_angle_alpha 88.045
_cell_angle_beta 90.645
_cell_angle_gamma 80.131
_space_group_name_H-M_alt 'P 1'
_space_group_name_Hall 'P 1'
loop_
    _symmetry_equiv_pos_as_xyz
    x,y,z
loop_
    _atom_site_label
    _atom_site_type_symbol
    _atom_site_fract_x
    _atom_site_fract_y
    _atom_site_fract_z
    _atom_site_occupancy
    N0      N    0.37019   0.91951   0.71072   1.000
    N1      N    0.37003   0.41959   0.71071   1.000
    N2      N    0.86844   0.16761   0.20574   1.000
    N3      N    0.87003   0.66749   0.20625   1.000
    N4      N    0.36854   0.16797   0.20626   1.000
    N5      N    0.37000   0.66756   0.20578   1.000
    N6      N    0.13001   0.08055   0.28885   1.000
    N7      N    0.61752   0.16936   0.70250   1.000
    N8      N    0.86998   0.91944   0.71114   1.000
    N9      N    0.61852   0.66865   0.70257   1.000
    N10     N    0.11849   0.66878   0.70317   1.000
    N11     N    0.87046   0.41945   0.71109   1.000
    N12     N    0.11746   0.16910   0.70311   1.000
    N13     N    0.12953   0.58053   0.28883   1.000
    N14     N    0.62977   0.08037   0.28932   1.000
    N15     N    0.63003   0.58032   0.28908   1.000
    N16     N    0.38150   0.33134   0.29739   1.000
    N17     N    0.38245   0.83061   0.29751   1.000
    N18     N    0.88154   0.33089   0.29677   1.000
    N19     N    0.88251   0.83086   0.29688   1.000
    N20     N    0.12996   0.33249   0.79327   1.000
    N21     N    0.13154   0.83225   0.79391   1.000
    N22     N    0.63001   0.33241   0.79388   1.000
    N23     N    0.63145   0.83201   0.79332   1.000
    Zr24    Zr   0.63235   0.83045   0.29382   1.000
    O25     O    0.63366   0.75531   0.31544   1.000
    O26     O    0.63066   0.90401   0.31435   1.000
    O27     O    0.70692   0.82946   0.31765   1.000
    O28     O    0.55874   0.82985   0.31788   1.000
    O29     O    0.63259   0.83057   0.46243   1.000
    O30     O    0.63024   0.90531   0.26873   1.000
    O31     O    0.55779   0.83195   0.27231   1.000
    O32     O    0.63252   0.75676   0.26982   1.000
    O33     O    0.70632   0.83025   0.27203   1.000
    O34     O    0.63150   0.83136   0.12487   1.000
    Zr35    Zr   0.13142   0.33070   0.29380   1.000
    O36     O    0.05696   0.33206   0.27199   1.000
    O37     O    0.20536   0.33080   0.27228   1.000
    O38     O    0.13203   0.25698   0.26971   1.000
    O39     O    0.13050   0.33167   0.12483   1.000
    O40     O    0.12935   0.40555   0.26854   1.000
    O41     O    0.05768   0.33038   0.31760   1.000
    O42     O    0.13002   0.40423   0.31406   1.000
    O43     O    0.13267   0.25564   0.31535   1.000
    O44     O    0.13137   0.33093   0.46240   1.000
    O45     O    0.20595   0.32958   0.31792   1.000
    Zr46    Zr   0.86799   0.16938   0.70583   1.000
    O47     O    0.86739   0.24432   0.68441   1.000
    O48     O    0.94172   0.16932   0.68189   1.000
    O49     O    0.86771   0.16913   0.53704   1.000
    O50     O    0.86918   0.09583   0.68557   1.000
    O51     O    0.79334   0.17089   0.68181   1.000
    O52     O    0.79392   0.16937   0.72744   1.000
    O53     O    0.94220   0.16831   0.72753   1.000
    O54     O    0.86858   0.16845   0.87461   1.000
    O55     O    0.86736   0.24319   0.73003   1.000
    O56     O    0.87018   0.09451   0.73118   1.000
    Zr57    Zr   0.86858   0.66929   0.70617   1.000
    O58     O    0.86998   0.59576   0.68580   1.000
    O59     O    0.94233   0.66953   0.68234   1.000
    O60     O    0.86732   0.74435   0.68463   1.000
    O61     O    0.79405   0.67041   0.68205   1.000
    O62     O    0.86863   0.66906   0.53745   1.000
    O63     O    0.86796   0.74301   0.73026   1.000
    O64     O    0.79464   0.66919   0.72769   1.000
    O65     O    0.87064   0.59443   0.73142   1.000
    O66     O    0.86950   0.66832   0.87502   1.000
    O67     O    0.94305   0.66785   0.72795   1.000
    Zr68    Zr   0.63141   0.33059   0.29417   1.000
    O69     O    0.70538   0.33041   0.27238   1.000
    O70     O    0.62951   0.40540   0.26887   1.000
    O71     O    0.63048   0.33153   0.12529   1.000
    O72     O    0.55695   0.33210   0.27254   1.000
    O73     O    0.63194   0.25681   0.27009   1.000
    O74     O    0.63014   0.40411   0.31449   1.000
    O75     O    0.63256   0.25554   0.31572   1.000
    O76     O    0.70597   0.32940   0.31801   1.000
    O77     O    0.63140   0.33088   0.46285   1.000
    O78     O    0.55764   0.33046   0.31817   1.000
    Zr79    Zr   0.13199   0.83060   0.29417   1.000
    O80     O    0.13262   0.75679   0.26995   1.000
    O81     O    0.05778   0.83167   0.27247   1.000
    O82     O    0.20605   0.83061   0.27257   1.000
    O83     O    0.12981   0.90547   0.26881   1.000
    O84     O    0.13141   0.83150   0.12530   1.000
    O85     O    0.13081   0.90416   0.31443   1.000
    O86     O    0.13227   0.83081   0.46287   1.000
    O87     O    0.05826   0.83066   0.31811   1.000
    O88     O    0.20664   0.82909   0.31819   1.000
    O89     O    0.13260   0.75566   0.31557   1.000
    Zr90    Zr   0.36861   0.66931   0.70579   1.000
    O91     O    0.36954   0.66839   0.87459   1.000
    O92     O    0.29466   0.66924   0.72758   1.000
    O93     O    0.36802   0.74307   0.72987   1.000
    O94     O    0.37057   0.59449   0.73104   1.000
    O95     O    0.44306   0.66785   0.72740   1.000
    O96     O    0.36861   0.66905   0.53703   1.000
    O97     O    0.44238   0.66947   0.68179   1.000
    O98     O    0.36749   0.74435   0.68425   1.000
    O99     O    0.36988   0.59580   0.68543   1.000
    O100    O    0.29405   0.67047   0.68195   1.000
    Zr101   Zr   0.36761   0.16950   0.70616   1.000
    O102    O    0.29365   0.16970   0.72796   1.000
    O103    O    0.44218   0.16799   0.72768   1.000
    O104    O    0.36973   0.09462   0.73127   1.000
    O105    O    0.36748   0.24318   0.73011   1.000
    O106    O    0.36848   0.16859   0.87501   1.000
    O107    O    0.36737   0.16938   0.53744   1.000
    O108    O    0.44122   0.17011   0.68212   1.000
    O109    O    0.36931   0.09592   0.68565   1.000
    O110    O    0.29304   0.17047   0.68233   1.000
    O111    O    0.36632   0.24463   0.68449   1.000
loop_
    _geom_bond_atom_site_label_1
    _geom_bond_atom_site_label_2
    _geom_bond_distance
    _geom_bond_site_symmetry_2
    _ccdc_geom_bond_type
    Zr24   O25       1.67452      .   S
    N15    O25       3.91500      .   S
    Zr24   O26       1.65633      .   S
    N14    O26       3.90144  1_545   S
    Zr24   O27       1.67534      .   S
    N19    O27       3.90245      .   S
    Zr24   O28       1.66847      .   S
    N17    O28       3.90280      .   S
    Zr24   O29       2.37210      .   S
    N23    O29       4.65640      .   S
    Zr24   O30       1.67385      .   S
    N14    O30       3.89101  1_545   S
    Zr24   O31       1.66754      .   S
    N17    O31       3.90253      .   S
    Zr24   O32       1.67508      .   S
    N15    O32       3.91241      .   S
    Zr24   O33       1.66687      .   S
    N19    O33       3.91025      .   S
    Zr24   O34       2.37608      .   S
    N23    O34       4.66374  1_556   S
    Zr35   O36       1.66657      .   S
    N18    O36       3.90284  1_655   S
    Zr35   O37       1.66661      .   S
    N16    O37       3.90895      .   S
    Zr35   O38       1.67437      .   S
    N6     O38       3.91035      .   S
    Zr35   O39       2.37621      .   S
    N20    O39       4.66380  1_556   S
    Zr35   O40       1.67421      .   S
    N13    O40       3.89103      .   S
    Zr35   O41       1.66959      .   S
    N18    O41       3.90058  1_655   S
    Zr35   O42       1.65574      .   S
    N13    O42       3.90168      .   S
    Zr35   O43       1.67283      .   S
    N6     O43       3.91353      .   S
    Zr35   O44       2.37211      .   S
    N20    O44       4.65628      .   S
    Zr35   O45       1.67475      .   S
    N16    O45       3.90258      .   S
    Zr46   O47       1.67237      .   S
    N11    O47       3.91644      .   S
    Zr46   O48       1.66818      .   S
    N12    O48       3.89349  1_455   S
    Zr46   O49       2.37467      .   S
    N2     O49       4.66223      .   S
    Zr46   O50       1.65708      .   S
    N8     O50       3.90264  1_565   S
    Zr46   O51       1.67575      .   S
    N7     O51       3.90785      .   S
    Zr46   O52       1.66926      .   S
    N7     O52       3.91260      .   S
    Zr46   O53       1.66177      .   S
    N12    O53       3.89753  1_455   S
    Zr46   O54       2.37368      .   S
    N2     O54       4.65771  1_554   S
    Zr46   O55       1.67680      .   S
    N11    O55       3.91091      .   S
    Zr46   O56       1.67442      .   S
    N8     O56       3.89285  1_565   S
    Zr57   O58       1.65611      .   S
    N11    O58       3.90186      .   S
    Zr57   O59       1.66958      .   S
    N10    O59       3.90030  1_455   S
    Zr57   O60       1.67283      .   S
    N8     O60       3.91353      .   S
    Zr57   O61       1.67464      .   S
    N9     O61       3.90233      .   S
    Zr57   O62       2.37372      .   S
    N3     O62       4.66110      .   S
    Zr57   O63       1.67438      .   S
    N8     O63       3.91034      .   S
    Zr57   O64       1.66649      .   S
    N9     O64       3.90873      .   S
    Zr57   O65       1.67426      .   S
    N11    O65       3.89117      .   S
    Zr57   O66       2.37460      .   S
    N3     O66       4.65898  1_554   S
    Zr57   O67       1.66637      .   S
    N10    O67       3.90263  1_455   S
    Zr68   O69       1.66694      .   S
    N18    O69       3.90854      .   S
    Zr68   O70       1.67388      .   S
    N15    O70       3.89106      .   S
    Zr68   O71       2.37493      .   S
    N22    O71       4.66159  1_556   S
    Zr68   O72       1.66558      .   S
    N16    O72       3.90222      .   S
    Zr68   O73       1.67594      .   S
    N14    O73       3.91116      .   S
    Zr68   O74       1.65620      .   S
    N15    O74       3.90131      .   S
    Zr68   O75       1.67297      .   S
    N14    O75       3.91562      .   S
    Zr68   O76       1.67432      .   S
    N18    O76       3.90304      .   S
    Zr68   O77       2.37332      .   S
    N22    O77       4.65855      .   S
    Zr68   O78       1.67005      .   S
    N16    O78       3.89941      .   S
    Zr79   O80       1.67686      .   S
    N13    O80       3.91086      .   S
    Zr79   O81       1.66182      .   S
    N19    O81       3.89766  1_655   S
    Zr79   O82       1.66913      .   S
    N17    O82       3.91240      .   S
    Zr79   O83       1.67449      .   S
    N6     O83       3.89296  1_545   S
    Zr79   O84       2.37492      .   S
    N21    O84       4.66158  1_556   S
    Zr79   O85       1.65712      .   S
    N6     O85       3.90278  1_545   S
    Zr79   O86       2.37331      .   S
    N21    O86       4.65845      .   S
    Zr79   O87       1.66824      .   S
    N19    O87       3.89363  1_655   S
    Zr79   O88       1.67567      .   S
    N17    O88       3.90762      .   S
    Zr79   O89       1.67231      .   S
    N13    O89       3.91651      .   S
    Zr90   O91       2.37396      .   S
    N5     O91       4.65851  1_554   S
    Zr90   O92       1.66721      .   S
    N10    O92       3.90878      .   S
    Zr90   O93       1.67552      .   S
    N0     O93       3.91118      .   S
    Zr90   O94       1.67378      .   S
    N1     O94       3.89080      .   S
    Zr90   O95       1.66561      .   S
    N9     O95       3.90234      .   S
    Zr90   O96       2.37420      .   S
    N5     O96       4.66171      .   S
    Zr90   O97       1.67018      .   S
    N9     O97       3.89947      .   S
    Zr90   O98       1.67288      .   S
    N0     O98       3.91530      .   S
    Zr90   O99       1.65599      .   S
    N1     O99       3.90101      .   S
    Zr90   O100      1.67434      .   S
    N10    O100      3.90347      .   S
    Zr101  O102      1.66664      .   S
    N12    O102      3.91011      .   S
    Zr101  O103      1.66776      .   S
    N7     O103      3.90256      .   S
    Zr101  O104      1.67422      .   S
    N0     O104      3.89192  1_565   S
    Zr101  O105      1.67480      .   S
    N1     O105      3.91223      .   S
    Zr101  O106      2.37465      .   S
    N4     O106      4.65945  1_554   S
    Zr101  O107      2.37354      .   S
    N4     O107      4.66066      .   S
    Zr101  O108      1.66840      .   S
    N7     O108      3.90310      .   S
    Zr101  O109      1.65672      .   S
    N0     O109      3.90232  1_565   S
    Zr101  O110      1.67531      .   S
    N12    O110      3.90210      .   S
    Zr101  O111      1.67446      .   S
    N1     O111      3.91454      .   S
