# CIF file generated by openbabel 2.4.90, see http://openbabel.sf.net
data_I
_chemical_name_common ''
_cell_length_a 22.113
_cell_length_b 22.118
_cell_length_c 14.068
_cell_angle_alpha 88.045
_cell_angle_beta 90.645
_cell_angle_gamma 80.131
_space_group_name_H-M_alt 'P 1'
_space_group_name_Hall 'P 1'
loop_
    _symmetry_equiv_pos_as_xyz
    x,y,z
loop_
    _atom_site_label
    _atom_site_type_symbol
    _atom_site_fract_x
    _atom_site_fract_y
    _atom_site_fract_z
    _atom_site_occupancy
    Zr0     Zr   0.36950   0.16679   0.80792   1.000
    Zr1     Zr   0.37004   0.66674   0.80750   1.000
    Zr2     Zr   0.86929   0.16689   0.80760   1.000
    Zr3     Zr   0.86999   0.66666   0.80795   1.000
    Zr4     Zr   0.36571   0.17222   0.60440   1.000
    Zr5     Zr   0.36717   0.67189   0.60407   1.000
    Zr6     Zr   0.86669   0.17188   0.60406   1.000
    Zr7     Zr   0.86716   0.67193   0.60439   1.000
    Zr8     Zr   0.13001   0.33333   0.19202   1.000
    Zr9     Zr   0.13069   0.83310   0.19241   1.000
    Zr10    Zr   0.62998   0.33314   0.19241   1.000
    Zr11    Zr   0.63049   0.83316   0.19206   1.000
    Zr12    Zr   0.13284   0.32806   0.39558   1.000
    Zr13    Zr   0.13329   0.82811   0.39593   1.000
    Zr14    Zr   0.63285   0.32804   0.39592   1.000
    Zr15    Zr   0.63421   0.82773   0.39558   1.000
    O16     O    0.36761   0.16950   0.70616   1.000
    O17     O    0.36861   0.66931   0.70579   1.000
    O18     O    0.86799   0.16938   0.70583   1.000
    O19     O    0.86858   0.66929   0.70617   1.000
    O20     O    0.13142   0.33070   0.29380   1.000
    O21     O    0.13199   0.83060   0.29417   1.000
    O22     O    0.63141   0.33059   0.29417   1.000
    O23     O    0.63235   0.83045   0.29382   1.000
    N24     N    0.37019   0.91951   0.71072   1.000
    O25     O    0.36743   0.81684   0.75396   1.000
    O26     O    0.36637   0.81939   0.66272   1.000
    O27     O    0.37100   0.02234   0.66514   1.000
    O28     O    0.37184   0.01974   0.75638   1.000
    N29     N    0.37003   0.41959   0.71071   1.000
    O30     O    0.36735   0.31685   0.75407   1.000
    O31     O    0.36503   0.31976   0.66283   1.000
    O32     O    0.37115   0.52230   0.66508   1.000
    O33     O    0.37254   0.51967   0.75630   1.000
    N34     N    0.86844   0.16761   0.20574   1.000
    O35     O    0.86742   0.16887   0.36825   1.000
    O36     O    0.86916   0.16752   0.04339   1.000
    N37     N    0.87003   0.66749   0.20625   1.000
    O38     O    0.86868   0.66883   0.36873   1.000
    O39     O    0.87043   0.66734   0.04387   1.000
    N40     N    0.36854   0.16797   0.20626   1.000
    O41     O    0.36714   0.16926   0.36873   1.000
    O42     O    0.36934   0.16768   0.04387   1.000
    N43     N    0.37000   0.66756   0.20578   1.000
    O44     O    0.36861   0.66878   0.36828   1.000
    O45     O    0.37047   0.66747   0.04339   1.000
    N46     N    0.13001   0.08055   0.28885   1.000
    O47     O    0.13265   0.18327   0.24563   1.000
    O48     O    0.13392   0.18059   0.33690   1.000
    O49     O    0.12962   0.97772   0.33468   1.000
    O50     O    0.12763   0.98035   0.24346   1.000
    N51     N    0.61752   0.16936   0.70250   1.000
    O52     O    0.71985   0.16937   0.74904   1.000
    O53     O    0.71869   0.17240   0.65779   1.000
    O54     O    0.51483   0.17071   0.65807   1.000
    O55     O    0.51676   0.16649   0.74920   1.000
    N56     N    0.86998   0.91944   0.71114   1.000
    O57     O    0.86735   0.81672   0.75435   1.000
    O58     O    0.86607   0.81941   0.66308   1.000
    O59     O    0.87036   0.02227   0.66531   1.000
    O60     O    0.87236   0.01964   0.75654   1.000
    N61     N    0.61852   0.66865   0.70257   1.000
    O62     O    0.51752   0.66638   0.74901   1.000
    O63     O    0.72070   0.66908   0.74921   1.000
    O64     O    0.71953   0.67153   0.65792   1.000
    O65     O    0.51615   0.66962   0.65779   1.000
    N66     N    0.11849   0.66878   0.70317   1.000
    O67     O    0.01752   0.66640   0.74974   1.000
    O68     O    0.22072   0.66917   0.74937   1.000
    O69     O    0.21950   0.67163   0.65812   1.000
    O70     O    0.01609   0.66977   0.65851   1.000
    N71     N    0.87046   0.41945   0.71109   1.000
    O72     O    0.86673   0.31701   0.75422   1.000
    O73     O    0.86678   0.31927   0.66299   1.000
    O74     O    0.87139   0.52223   0.66542   1.000
    O75     O    0.87271   0.51958   0.75667   1.000
    N76     N    0.11746   0.16910   0.70311   1.000
    O77     O    0.01641   0.16724   0.74923   1.000
    O78     O    0.21969   0.16991   0.74975   1.000
    O79     O    0.21848   0.17143   0.65850   1.000
    O80     O    0.01544   0.16925   0.65795   1.000
    N81     N    0.12953   0.58053   0.28883   1.000
    O82     O    0.13326   0.68298   0.24573   1.000
    O83     O    0.13321   0.68072   0.33696   1.000
    O84     O    0.12861   0.47775   0.33431   1.000
    O85     O    0.12729   0.48041   0.24328   1.000
    N86     N    0.62977   0.08037   0.28932   1.000
    O87     O    0.63246   0.18304   0.24602   1.000
    O88     O    0.63370   0.18050   0.33728   1.000
    O89     O    0.62897   0.97757   0.33488   1.000
    O90     O    0.62813   0.98017   0.24364   1.000
    N91     N    0.63003   0.58032   0.28908   1.000
    O92     O    0.63268   0.68307   0.24581   1.000
    O93     O    0.63497   0.68017   0.33705   1.000
    O94     O    0.62887   0.47763   0.33482   1.000
    O95     O    0.62761   0.48021   0.24357   1.000
    N96     N    0.38150   0.33134   0.29739   1.000
    O97     O    0.27931   0.33091   0.25076   1.000
    O98     O    0.28048   0.32845   0.34205   1.000
    O99     O    0.48387   0.33032   0.34218   1.000
    O100    O    0.48249   0.33360   0.25092   1.000
    N101    N    0.38245   0.83061   0.29751   1.000
    O102    O    0.28012   0.83061   0.25097   1.000
    O103    O    0.28128   0.82757   0.34222   1.000
    O104    O    0.48513   0.82926   0.34193   1.000
    O105    O    0.48322   0.83345   0.25079   1.000
    N106    N    0.88154   0.33089   0.29677   1.000
    O107    O    0.77935   0.33024   0.25059   1.000
    O108    O    0.78052   0.32821   0.34186   1.000
    O109    O    0.98393   0.33007   0.34140   1.000
    O110    O    0.98249   0.33342   0.25019   1.000
    N111    N    0.88251   0.83086   0.29688   1.000
    O112    O    0.78029   0.83006   0.25024   1.000
    O113    O    0.78149   0.82847   0.34149   1.000
    O114    O    0.98453   0.83072   0.34204   1.000
    O115    O    0.98357   0.83274   0.25077   1.000
    N116    N    0.12996   0.33249   0.79327   1.000
    O117    O    0.13132   0.33116   0.63101   1.000
    O118    O    0.12957   0.33264   0.95587   1.000
    N119    N    0.13154   0.83225   0.79391   1.000
    O120    O    0.13256   0.83103   0.63156   1.000
    O121    O    0.13082   0.83239   0.95643   1.000
    N122    N    0.63001   0.33241   0.79388   1.000
    O123    O    0.63139   0.33117   0.63154   1.000
    O124    O    0.62954   0.33247   0.95642   1.000
    N125    N    0.63145   0.83201   0.79332   1.000
    O126    O    0.63284   0.83070   0.63105   1.000
    O127    O    0.63065   0.83228   0.95591   1.000
loop_
    _geom_bond_atom_site_label_1
    _geom_bond_atom_site_label_2
    _geom_bond_distance
    _geom_bond_site_symmetry_2
    _ccdc_geom_bond_type
    Zr0    O16       1.43061      .   S
    Zr4    O16       1.43061      .   S
    Zr1    O17       1.42989      .   S
    Zr5    O17       1.42989      .   S
    Zr2    O18       1.43066      .   S
    Zr6    O18       1.43066      .   S
    Zr3    O19       1.43081      .   S
    Zr7    O19       1.43081      .   S
    Zr8    O20       1.43081      .   S
    Zr12   O20       1.43081      .   S
    Zr9    O21       1.43052      .   S
    Zr13   O21       1.43052      .   S
    Zr10   O22       1.43046      .   S
    Zr14   O22       1.43046      .   S
    Zr11   O23       1.43060      .   S
    Zr15   O23       1.43060      .   S
    N24    O25       2.34207      .   S
    Zr1    O25       3.36981      .   S
    N24    O26       2.35207      .   S
    Zr5    O26       3.38957      .   S
    N24    O27       2.34488  1_565   S
    Zr4    O27       3.37703      .   S
    N24    O28       2.33515  1_565   S
    Zr0    O28       3.34817      .   S
    N29    O30       2.34338      .   S
    Zr0    O30       3.37137      .   S
    N29    O31       2.35060      .   S
    Zr4    O31       3.38991      .   S
    N29    O32       2.34380      .   S
    Zr5    O32       3.37579      .   S
    N29    O33       2.33512      .   S
    Zr1    O33       3.34682      .   S
    N34    O35       2.28768      .   S
    Zr6    O35       3.32046      .   S
    N34    O36       2.28416      .   S
    Zr2    O36       3.31768  1_556   S
    N37    O38       2.28751      .   S
    Zr7    O38       3.31868      .   S
    N37    O39       2.28451      .   S
    Zr3    O39       3.31945  1_556   S
    N40    O41       2.28731      .   S
    Zr4    O41       3.31871      .   S
    N40    O42       2.28499      .   S
    Zr0    O42       3.32005  1_556   S
    N43    O44       2.28764      .   S
    Zr5    O44       3.32050      .   S
    N43    O45       2.28468      .   S
    Zr1    O45       3.31905  1_556   S
    N46    O47       2.34232      .   S
    Zr8    O47       3.36905      .   S
    N46    O48       2.35073      .   S
    Zr12   O48       3.38816      .   S
    N46    O49       2.34435  1_545   S
    Zr13   O49       3.37803      .   S
    N46    O50       2.33635  1_545   S
    Zr9    O50       3.34849      .   S
    N51    O52       2.34859      .   S
    Zr2    O52       3.38756      .   S
    N51    O53       2.34200      .   S
    Zr6    O53       3.36540      .   S
    N51    O54       2.34352      .   S
    Zr4    O54       3.36870      .   S
    N51    O55       2.34079      .   S
    Zr0    O55       3.36731      .   S
    N56    O57       2.34231      .   S
    Zr3    O57       3.36905      .   S
    N56    O58       2.35071      .   S
    Zr7    O58       3.38820      .   S
    N56    O59       2.34426  1_565   S
    Zr6    O59       3.37790      .   S
    N56    O60       2.33634  1_565   S
    Zr2    O60       3.34845      .   S
    N61    O62       2.34214      .   S
    Zr1    O62       3.37125      .   S
    N61    O63       2.34754      .   S
    Zr3    O63       3.38512      .   S
    N61    O64       2.33783      .   S
    Zr7    O64       3.36001      .   S
    N61    O65       2.33908      .   S
    Zr5    O65       3.36325      .   S
    N66    O67       2.34267      .   S
    Zr3    O67       3.37155  1_655   S
    N66    O68       2.34675      .   S
    Zr1    O68       3.38364      .   S
    N66    O69       2.33923      .   S
    Zr5    O69       3.36208      .   S
    N66    O70       2.33947      .   S
    Zr7    O70       3.36367  1_655   S
    N71    O72       2.34112      .   S
    Zr2    O72       3.36994      .   S
    N71    O73       2.35323      .   S
    Zr6    O73       3.39136      .   S
    N71    O74       2.34466      .   S
    Zr7    O74       3.37734      .   S
    N71    O75       2.33490      .   S
    Zr3    O75       3.34672      .   S
    N76    O77       2.34052      .   S
    Zr2    O77       3.36544  1_655   S
    N76    O78       2.34993      .   S
    Zr0    O78       3.39211      .   S
    N76    O79       2.33559      .   S
    Zr4    O79       3.35476      .   S
    N76    O80       2.33621      .   S
    Zr6    O80       3.35756  1_655   S
    N81    O82       2.34098      .   S
    Zr9    O82       3.36980      .   S
    N81    O83       2.35334      .   S
    Zr13   O83       3.39148      .   S
    N81    O84       2.34393      .   S
    Zr12   O84       3.37799      .   S
    N81    O85       2.33474      .   S
    Zr8    O85       3.34656      .   S
    N86    O87       2.34169      .   S
    Zr10   O87       3.37040      .   S
    N86    O88       2.35235      .   S
    Zr14   O88       3.39010      .   S
    N86    O89       2.34444  1_545   S
    Zr15   O89       3.37615      .   S
    N86    O90       2.33462  1_545   S
    Zr11   O90       3.34751      .   S
    N91    O92       2.34321      .   S
    Zr11   O92       3.37152      .   S
    N91    O93       2.35105      .   S
    Zr15   O93       3.39043      .   S
    N91    O94       2.34409      .   S
    Zr14   O94       3.37609      .   S
    N91    O95       2.33512      .   S
    Zr10   O95       3.34722      .   S
    N96    O97       2.34763      .   S
    Zr8    O97       3.38534      .   S
    N96    O98       2.33798      .   S
    Zr12   O98       3.36022      .   S
    N96    O99       2.33918      .   S
    Zr14   O99       3.36315      .   S
    N96    O100      2.34216      .   S
    Zr10   O100      3.37113      .   S
    N101   O102      2.34848      .   S
    Zr9    O102      3.38731      .   S
    N101   O103      2.34187      .   S
    Zr13   O103      3.36519      .   S
    N101   O104      2.34319      .   S
    Zr15   O104      3.36800      .   S
    N101   O105      2.34096      .   S
    Zr11   O105      3.36769      .   S
    N106   O107      2.34681      .   S
    Zr10   O107      3.38344      .   S
    N106   O108      2.33899      .   S
    Zr14   O108      3.36186      .   S
    N106   O109      2.33959      .   S
    Zr12   O109      3.36402  1_455   S
    N106   O110      2.34281      .   S
    Zr8    O110      3.37166  1_455   S
    N111   O112      2.34984      .   S
    Zr11   O112      3.39189      .   S
    N111   O113      2.33591      .   S
    Zr15   O113      3.35547      .   S
    N111   O114      2.33629      .   S
    Zr13   O114      3.35764  1_455   S
    N111   O115      2.34059      .   S
    Zr9    O115      3.36553  1_455   S
    N116   O117      2.28430      .   S
    Zr12   O117      3.31547      .   S
    N116   O118      2.28772      .   S
    Zr8    O118      3.32266  1_554   S
    N119   O120      2.28527      .   S
    Zr13   O120      3.31784      .   S
    N119   O121      2.28678      .   S
    Zr9    O121      3.32033  1_554   S
    N122   O123      2.28536      .   S
    Zr14   O123      3.31817      .   S
    N122   O124      2.28678      .   S
    Zr10   O124      3.32042  1_554   S
    N125   O126      2.28448      .   S
    Zr15   O126      3.31581      .   S
    N125   O127      2.28784      .   S
    Zr11   O127      3.32290  1_554   S
