# CIF file generated by openbabel 2.4.90, see http://openbabel.sf.net
data_I
_chemical_name_common 'VESTA_phase_1'
_cell_length_a 21.562
_cell_length_b 17.666
_cell_length_c 17.196
_cell_angle_alpha 89.986
_cell_angle_beta 89.955
_cell_angle_gamma 90.011
_space_group_name_H-M_alt 'P 1'
_space_group_name_Hall 'P 1'
loop_
    _symmetry_equiv_pos_as_xyz
    x,y,z
loop_
    _atom_site_label
    _atom_site_type_symbol
    _atom_site_fract_x
    _atom_site_fract_y
    _atom_site_fract_z
    _atom_site_occupancy
    Zn0     Zn   0.08008   0.21251   0.48413   1.000
    Zn1     Zn   0.58114   0.21260   0.48648   1.000
    Zn2     Zn   0.28778   0.65982   0.91964   1.000
    Zn3     Zn   0.78879   0.65990   0.91986   1.000
    Zn4     Zn   0.33615   0.60276   0.10058   1.000
    Zn5     Zn   0.83693   0.60279   0.10067   1.000
    Zn6     Zn   0.16275   0.60361   0.01639   1.000
    Zn7     Zn   0.66387   0.60374   0.01621   1.000
    Zn8     Zn   0.17018   0.78695   0.98578   1.000
    Zn9     Zn   0.66945   0.78665   0.98590   1.000
    Zn10    Zn   0.46164   0.33755   0.41985   1.000
    Zn11    Zn   0.96176   0.33766   0.41908   1.000
    Zn12    Zn   0.41345   0.39658   0.60035   1.000
    Zn13    Zn   0.91432   0.39685   0.60015   1.000
    Zn14    Zn   0.08584   0.39418   0.51650   1.000
    Zn15    Zn   0.58669   0.39416   0.51650   1.000
    Zn16    Zn   0.41898   0.71277   0.01349   1.000
    Zn17    Zn   0.91995   0.71280   0.01359   1.000
    Zn18    Zn   0.21081   0.15960   0.57948   1.000
    Zn19    Zn   0.71219   0.15982   0.58003   1.000
    Zn20    Zn   0.16309   0.10264   0.39693   1.000
    Zn21    Zn   0.66410   0.10267   0.39919   1.000
    Zn22    Zn   0.33618   0.10338   0.48317   1.000
    Zn23    Zn   0.83727   0.10400   0.48300   1.000
    Zn24    Zn   0.33054   0.28486   0.51332   1.000
    Zn25    Zn   0.82975   0.28687   0.51330   1.000
    Zn26    Zn   0.03919   0.83822   0.08000   1.000
    Zn27    Zn   0.53860   0.83762   0.07989   1.000
    Zn28    Zn   0.08574   0.89671   0.89708   1.000
    Zn29    Zn   0.58640   0.89646   0.89713   1.000
    Zn30    Zn   0.41340   0.89403   0.98333   1.000
    Zn31    Zn   0.91433   0.89443   0.98295   1.000
    H32     H    0.00530   0.29486   0.54915   1.000
    H33     H    0.50596   0.29513   0.54974   1.000
    H34     H    0.11408   0.09426   0.54177   1.000
    H35     H    0.61474   0.09442   0.54419   1.000
    H36     H    0.12294   0.40211   0.13883   1.000
    H37     H    0.62350   0.40142   0.13805   1.000
    H38     H    0.10532   0.30027   0.23629   1.000
    H39     H    0.60532   0.30032   0.23605   1.000
    H40     H    0.28896   0.46786   0.26007   1.000
    H41     H    0.78912   0.46754   0.25986   1.000
    H42     H    0.09648   0.45045   0.83879   1.000
    H43     H    0.59686   0.45133   0.83870   1.000
    H44     H    0.08457   0.35155   0.73666   1.000
    H45     H    0.58508   0.35198   0.73697   1.000
    H46     H    0.28125   0.49658   0.75710   1.000
    H47     H    0.78175   0.49713   0.75740   1.000
    H48     H    0.24373   0.70236   0.04988   1.000
    H49     H    0.74418   0.70301   0.04954   1.000
    H50     H    0.13513   0.90511   0.04154   1.000
    H51     H    0.63449   0.90440   0.04276   1.000
    H52     H    0.12720   0.59687   0.63816   1.000
    H53     H    0.62661   0.59728   0.63820   1.000
    H54     H    0.14562   0.69818   0.73585   1.000
    H55     H    0.64431   0.69908   0.73550   1.000
    H56     H    0.46120   0.53087   0.76073   1.000
    H57     H    0.96112   0.53219   0.76010   1.000
    H58     H    0.15341   0.54814   0.33959   1.000
    H59     H    0.65287   0.54688   0.33883   1.000
    H60     H    0.16529   0.64729   0.23762   1.000
    H61     H    0.66498   0.64575   0.23659   1.000
    H62     H    0.46809   0.50108   0.25746   1.000
    H63     H    0.96872   0.50189   0.25815   1.000
    H64     H    0.49443   0.79562   0.95010   1.000
    H65     H    0.99503   0.79549   0.95012   1.000
    H66     H    0.38504   0.59495   0.95520   1.000
    H67     H    0.88601   0.59480   0.95540   1.000
    H68     H    0.37606   0.90132   0.36104   1.000
    H69     H    0.87759   0.90210   0.35953   1.000
    H70     H    0.39410   0.80006   0.26309   1.000
    H71     H    0.89513   0.80104   0.26141   1.000
    H72     H    0.21093   0.96827   0.23865   1.000
    H73     H    0.71071   0.96739   0.23996   1.000
    H74     H    0.40315   0.95038   0.65949   1.000
    H75     H    0.90387   0.95072   0.66011   1.000
    H76     H    0.41509   0.85134   0.76157   1.000
    H77     H    0.91585   0.85164   0.76212   1.000
    H78     H    0.21863   0.99690   0.74158   1.000
    H79     H    0.71934   0.99704   0.74230   1.000
    H80     H    0.25547   0.20224   0.44964   1.000
    H81     H    0.75592   0.20234   0.44935   1.000
    H82     H    0.36472   0.40328   0.45546   1.000
    H83     H    0.86509   0.40431   0.45562   1.000
    H84     H    0.37236   0.09619   0.86075   1.000
    H85     H    0.87317   0.09819   0.86056   1.000
    H86     H    0.35446   0.19783   0.76324   1.000
    H87     H    0.85532   0.19946   0.76261   1.000
    H88     H    0.03786   0.03052   0.73736   1.000
    H89     H    0.53866   0.03137   0.73939   1.000
    H90     H    0.34749   0.04700   0.16073   1.000
    H91     H    0.84627   0.04748   0.15945   1.000
    H92     H    0.33535   0.14574   0.26309   1.000
    H93     H    0.83431   0.14710   0.26090   1.000
    H94     H    0.03087   0.00165   0.24131   1.000
    H95     H    0.53235   0.00142   0.24191   1.000
    C96     C    0.20807   0.44022   0.19169   1.000
    C97     C    0.70851   0.43976   0.19108   1.000
    C98     C    0.15574   0.39342   0.18612   1.000
    C99     C    0.65611   0.39303   0.18500   1.000
    C100    C    0.14603   0.33663   0.24085   1.000
    C101    C    0.64606   0.33660   0.24070   1.000
    C102    C    0.18764   0.32602   0.30266   1.000
    C103    C    0.68741   0.32615   0.30284   1.000
    C104    C    0.23890   0.37509   0.31019   1.000
    C105    C    0.73873   0.37519   0.31019   1.000
    C106    C    0.24888   0.43090   0.25395   1.000
    C107    C    0.74900   0.43067   0.25369   1.000
    C108    C    0.21962   0.50134   0.13351   1.000
    C109    C    0.72061   0.50063   0.13269   1.000
    C110    C    0.17122   0.26343   0.35881   1.000
    C111    C    0.67109   0.26370   0.35941   1.000
    C112    C    0.28324   0.37051   0.37714   1.000
    C113    C    0.78314   0.37092   0.37704   1.000
    C114    C    0.18947   0.48027   0.80440   1.000
    C115    C    0.68985   0.48108   0.80432   1.000
    C116    C    0.13424   0.43875   0.79840   1.000
    C117    C    0.63465   0.43949   0.79845   1.000
    C118    C    0.12775   0.38343   0.74110   1.000
    C119    C    0.62822   0.38393   0.74130   1.000
    C120    C    0.17651   0.36785   0.68974   1.000
    C121    C    0.67702   0.36830   0.69005   1.000
    C122    C    0.23242   0.40902   0.69589   1.000
    C123    C    0.73292   0.40945   0.69634   1.000
    C124    C    0.23802   0.46514   0.75268   1.000
    C125    C    0.73852   0.46570   0.75291   1.000
    C126    C    0.19849   0.53925   0.86601   1.000
    C127    C    0.69884   0.54026   0.86566   1.000
    C128    C    0.16932   0.30461   0.63167   1.000
    C129    C    0.67015   0.30496   0.63201   1.000
    C130    C    0.28620   0.39155   0.64386   1.000
    C131    C    0.78657   0.39194   0.64430   1.000
    C132    C    0.04192   0.55933   0.69133   1.000
    C133    C    0.54177   0.55870   0.69163   1.000
    C134    C    0.09457   0.60559   0.68569   1.000
    C135    C    0.59397   0.60570   0.68579   1.000
    C136    C    0.10476   0.66211   0.74063   1.000
    C137    C    0.60377   0.66249   0.74054   1.000
    C138    C    0.06338   0.67292   0.80275   1.000
    C139    C    0.56250   0.67286   0.80284   1.000
    C140    C    0.01191   0.62414   0.81036   1.000
    C141    C    0.51142   0.62347   0.81065   1.000
    C142    C    0.00142   0.56877   0.75392   1.000
    C143    C    0.50124   0.56787   0.75429   1.000
    C144    C    0.02928   0.49846   0.63328   1.000
    C145    C    0.52986   0.49752   0.63355   1.000
    C146    C    0.07975   0.73570   0.85877   1.000
    C147    C    0.57873   0.73577   0.85887   1.000
    C148    C    0.46739   0.62751   0.87801   1.000
    C149    C    0.96763   0.62837   0.87741   1.000
    C150    C    0.06056   0.51804   0.30508   1.000
    C151    C    0.55989   0.51721   0.30450   1.000
    C152    C    0.11569   0.55980   0.29925   1.000
    C153    C    0.61516   0.55864   0.29851   1.000
    C154    C    0.12217   0.61526   0.24206   1.000
    C155    C    0.62176   0.61394   0.24119   1.000
    C156    C    0.07349   0.63069   0.19058   1.000
    C157    C    0.57302   0.62970   0.18990   1.000
    C158    C    0.01753   0.58964   0.19697   1.000
    C159    C    0.51698   0.58872   0.19623   1.000
    C160    C    0.01194   0.53335   0.25361   1.000
    C161    C    0.51135   0.53246   0.25289   1.000
    C162    C    0.05171   0.45860   0.36630   1.000
    C163    C    0.55084   0.45823   0.36612   1.000
    C164    C    0.08049   0.69368   0.13217   1.000
    C165    C    0.58043   0.69289   0.13179   1.000
    C166    C    0.46307   0.60680   0.14476   1.000
    C167    C    0.96375   0.60745   0.14524   1.000
    C168    C    0.29132   0.93994   0.30762   1.000
    C169    C    0.79202   0.94005   0.30766   1.000
    C170    C    0.34357   0.89307   0.31334   1.000
    C171    C    0.84454   0.89350   0.31250   1.000
    C172    C    0.35353   0.83661   0.25831   1.000
    C173    C    0.85421   0.83706   0.25735   1.000
    C174    C    0.31229   0.82654   0.19604   1.000
    C175    C    0.81233   0.82630   0.19582   1.000
    C176    C    0.26119   0.87584   0.18835   1.000
    C177    C    0.76077   0.87507   0.18912   1.000
    C178    C    0.25094   0.93123   0.24486   1.000
    C179    C    0.75095   0.93064   0.24567   1.000
    C180    C    0.27921   0.00055   0.36612   1.000
    C181    C    0.78047   0.00104   0.36610   1.000
    C182    C    0.32868   0.76422   0.13953   1.000
    C183    C    0.82878   0.76390   0.13926   1.000
    C184    C    0.21694   0.87151   0.12135   1.000
    C185    C    0.71586   0.87071   0.12271   1.000
    C186    C    0.31028   0.98034   0.69416   1.000
    C187    C    0.81103   0.98072   0.69491   1.000
    C188    C    0.36547   0.93872   0.69997   1.000
    C189    C    0.86619   0.93905   0.70058   1.000
    C190    C    0.37198   0.88336   0.75721   1.000
    C191    C    0.87273   0.88364   0.75780   1.000
    C192    C    0.32328   0.86794   0.80870   1.000
    C193    C    0.82405   0.86813   0.80930   1.000
    C194    C    0.26749   0.90932   0.80276   1.000
    C195    C    0.76816   0.90930   0.80329   1.000
    C196    C    0.26181   0.96537   0.74597   1.000
    C197    C    0.76252   0.96553   0.74665   1.000
    C198    C    0.30125   0.03911   0.63247   1.000
    C199    C    0.80192   0.03989   0.63355   1.000
    C200    C    0.33032   0.80455   0.86670   1.000
    C201    C    0.83106   0.80484   0.86740   1.000
    C202    C    0.21394   0.89228   0.85512   1.000
    C203    C    0.71447   0.89174   0.85533   1.000
    C204    C    0.45769   0.05850   0.80792   1.000
    C205    C    0.95767   0.05906   0.80670   1.000
    C206    C    0.40516   0.10498   0.81341   1.000
    C207    C    0.90563   0.10625   0.81272   1.000
    C208    C    0.39528   0.16169   0.75850   1.000
    C209    C    0.89579   0.16277   0.75765   1.000
    C210    C    0.43686   0.17254   0.69668   1.000
    C211    C    0.93695   0.17275   0.69516   1.000
    C212    C    0.48828   0.12369   0.68923   1.000
    C213    C    0.98789   0.12319   0.68730   1.000
    C214    C    0.49843   0.06805   0.74556   1.000
    C215    C    0.99798   0.06774   0.74381   1.000
    C216    C    0.46984   0.99752   0.86612   1.000
    C217    C    0.96993   0.99817   0.86500   1.000
    C218    C    0.42041   0.23495   0.64021   1.000
    C219    C    0.92063   0.23531   0.63880   1.000
    C220    C    0.03205   0.12699   0.62001   1.000
    C221    C    0.53288   0.12822   0.62251   1.000
    C222    C    0.44046   0.01739   0.19509   1.000
    C223    C    0.93912   0.01766   0.19420   1.000
    C224    C    0.38518   0.05876   0.20108   1.000
    C225    C    0.88397   0.05938   0.19974   1.000
    C226    C    0.37856   0.11395   0.25846   1.000
    C227    C    0.87745   0.11513   0.25660   1.000
    C228    C    0.42728   0.12954   0.30982   1.000
    C229    C    0.92617   0.13094   0.30789   1.000
    C230    C    0.48337   0.08882   0.30339   1.000
    C231    C    0.98209   0.08978   0.30180   1.000
    C232    C    0.48907   0.03271   0.24659   1.000
    C233    C    0.98768   0.03317   0.24562   1.000
    C234    C    0.44937   0.95827   0.13362   1.000
    C235    C    0.94822   0.95824   0.13315   1.000
    C236    C    0.41996   0.19270   0.36784   1.000
    C237    C    0.91918   0.19422   0.36594   1.000
    C238    C    0.03590   0.10776   0.35329   1.000
    C239    C    0.53717   0.10668   0.35516   1.000
    O240    O    0.27441   0.52775   0.13001   1.000
    O241    O    0.77540   0.52721   0.13006   1.000
    O242    O    0.17332   0.52205   0.09249   1.000
    O243    O    0.67478   0.52103   0.09065   1.000
    O244    O    0.19704   0.19862   0.34987   1.000
    O245    O    0.69646   0.19875   0.35002   1.000
    O246    O    0.12846   0.27851   0.40699   1.000
    O247    O    0.62912   0.27901   0.40863   1.000
    O248    O    0.31984   0.42491   0.38991   1.000
    O249    O    0.81909   0.42578   0.39022   1.000
    O250    O    0.28037   0.30920   0.41717   1.000
    O251    O    0.78106   0.30918   0.41653   1.000
    O252    O    0.24786   0.57865   0.86000   1.000
    O253    O    0.74874   0.57878   0.86046   1.000
    O254    O    0.15708   0.54463   0.91903   1.000
    O255    O    0.65691   0.54662   0.91786   1.000
    O256    O    0.18932   0.24014   0.65353   1.000
    O257    O    0.69069   0.24074   0.65376   1.000
    O258    O    0.14161   0.31533   0.56700   1.000
    O259    O    0.64230   0.31535   0.56736   1.000
    O260    O    0.33765   0.42532   0.65750   1.000
    O261    O    0.83868   0.42348   0.65932   1.000
    O262    O    0.27687   0.34359   0.59023   1.000
    O263    O    0.77620   0.34606   0.58903   1.000
    O264    O    0.02414   0.31202   0.50000   1.000
    O265    O    0.52465   0.31204   0.50047   1.000
    O266    O    0.14431   0.12595   0.50765   1.000
    O267    O    0.64518   0.12558   0.50969   1.000
    O268    O    0.47473   0.47205   0.62999   1.000
    O269    O    0.97372   0.47429   0.62900   1.000
    O270    O    0.07513   0.47576   0.59260   1.000
    O271    O    0.57604   0.47582   0.59283   1.000
    O272    O    0.05332   0.80011   0.84984   1.000
    O273    O    0.55227   0.80024   0.85003   1.000
    O274    O    0.12261   0.72124   0.90692   1.000
    O275    O    0.62174   0.72142   0.90683   1.000
    O276    O    0.42975   0.57388   0.88961   1.000
    O277    O    0.93099   0.57394   0.88990   1.000
    O278    O    0.47161   0.68753   0.91981   1.000
    O279    O    0.97051   0.68938   0.91786   1.000
    O280    O    0.50163   0.41858   0.36014   1.000
    O281    O    0.00000   0.41872   0.36006   1.000
    O282    O    0.09298   0.45328   0.41945   1.000
    O283    O    0.59209   0.45315   0.41928   1.000
    O284    O    0.06121   0.75840   0.15429   1.000
    O285    O    0.56128   0.75764   0.15389   1.000
    O286    O    0.10711   0.68261   0.06680   1.000
    O287    O    0.60752   0.68178   0.06672   1.000
    O288    O    0.41178   0.57217   0.15729   1.000
    O289    O    0.91191   0.57489   0.15983   1.000
    O290    O    0.47208   0.65643   0.09266   1.000
    O291    O    0.97344   0.65456   0.09087   1.000
    O292    O    0.22497   0.68610   0.00048   1.000
    O293    O    0.72550   0.68669   0.00000   1.000
    O294    O    0.10488   0.87337   0.00781   1.000
    O295    O    0.60478   0.87285   0.00807   1.000
    O296    O    0.22401   0.02572   0.36998   1.000
    O297    O    0.72558   0.02717   0.36990   1.000
    O298    O    0.32533   0.02195   0.40701   1.000
    O299    O    0.82677   0.02198   0.40703   1.000
    O300    O    0.30407   0.69890   0.14970   1.000
    O301    O    0.80288   0.69908   0.14768   1.000
    O302    O    0.37003   0.78008   0.08968   1.000
    O303    O    0.87157   0.77904   0.09110   1.000
    O304    O    0.18161   0.92669   0.10707   1.000
    O305    O    0.67984   0.92553   0.10970   1.000
    O306    O    0.21849   0.80905   0.08299   1.000
    O307    O    0.71771   0.80893   0.08330   1.000
    O308    O    0.25141   0.07774   0.63719   1.000
    O309    O    0.75258   0.07928   0.63969   1.000
    O310    O    0.34325   0.04496   0.58026   1.000
    O311    O    0.84321   0.04540   0.58043   1.000
    O312    O    0.30916   0.74048   0.84536   1.000
    O313    O    0.81053   0.74058   0.84587   1.000
    O314    O    0.35912   0.81470   0.93069   1.000
    O315    O    0.85906   0.81537   0.93194   1.000
    O316    O    0.16203   0.92436   0.84013   1.000
    O317    O    0.66247   0.92359   0.84000   1.000
    O318    O    0.22409   0.84638   0.91043   1.000
    O319    O    0.72446   0.84570   0.91052   1.000
    O320    O    0.47546   0.81201   0.99946   1.000
    O321    O    0.97623   0.81231   0.99935   1.000
    O322    O    0.35486   0.62626   0.99013   1.000
    O323    O    0.85580   0.62597   0.99032   1.000
    O324    O    0.02489   0.97199   0.86680   1.000
    O325    O    0.52511   0.97253   0.86982   1.000
    O326    O    0.42378   0.97558   0.90690   1.000
    O327    O    0.92453   0.97736   0.90756   1.000
    O328    O    0.44533   0.30013   0.64979   1.000
    O329    O    0.94690   0.29990   0.64720   1.000
    O330    O    0.37882   0.21899   0.59077   1.000
    O331    O    0.87775   0.22040   0.59077   1.000
    O332    O    0.06837   0.07235   0.60721   1.000
    O333    O    0.56890   0.07335   0.60943   1.000
    O334    O    0.02940   0.18816   0.57973   1.000
    O335    O    0.53100   0.18998   0.58304   1.000
    O336    O    0.99736   0.91851   0.13943   1.000
    O337    O    0.49846   0.91844   0.13975   1.000
    O338    O    0.40806   0.95319   0.08052   1.000
    O339    O    0.90695   0.95298   0.08003   1.000
    O340    O    0.44016   0.25706   0.34000   1.000
    O341    O    0.93874   0.25884   0.34373   1.000
    O342    O    0.39202   0.18209   0.43242   1.000
    O343    O    0.89236   0.18331   0.43120   1.000
    O344    O    0.08753   0.07444   0.33948   1.000
    O345    O    0.58908   0.07450   0.34020   1.000
    O346    O    0.02643   0.15586   0.40673   1.000
    O347    O    0.52748   0.15337   0.40991   1.000
    O348    O    0.27418   0.18578   0.49903   1.000
    O349    O    0.77468   0.18600   0.49870   1.000
    O350    O    0.39472   0.37185   0.49029   1.000
    O351    O    0.89515   0.37276   0.49001   1.000
loop_
    _geom_bond_atom_site_label_1
    _geom_bond_atom_site_label_2
    _geom_bond_distance
    _geom_bond_site_symmetry_2
    _ccdc_geom_bond_type
    O292   H48       0.98410      .   S
    O292   Zn2       1.99503  1_554   S
    O294   H50       1.03768      .   S
    O294   Zn26      1.98228      .   S
    O295   H51       1.03800      .   S
    O295   Zn27      1.98631      .   S
    Zn16   O302      2.05998      .   S
    Zn16   O290      2.03895      .   S
    Zn16   O278      2.01969  1_554   S
    Zn17   O291      2.03890      .   S
    Zn17   O303      2.05742      .   S
    Zn17   O279      2.01677  1_554   S
    Zn7    O287      2.03245      .   S
    Zn7    O243      1.95676      .   S
    Zn7    O255      1.97540  1_554   S
    Zn6    O286      2.03426      .   S
    Zn6    O242      1.95955      .   S
    Zn6    O254      1.97602  1_554   S
    H49    O293      0.98566      .   S
    O287   C165      1.27700      .   S
    O286   C164      1.27685      .   S
    Zn27   O337      1.96132      .   S
    Zn27   O285      1.96351      .   S
    Zn26   O336      1.96699  1_455   S
    Zn26   O284      1.96120      .   S
    O339   C235      1.27905      .   S
    O339   Zn31      1.97038  1_554   S
    O338   C234      1.27920      .   S
    O338   Zn30      1.97465  1_554   S
    O306   C184      1.28620      .   S
    O306   Zn8       2.00867  1_554   S
    O307   C185      1.28548      .   S
    O307   Zn9       2.01140  1_554   S
    O302   C182      1.26753      .   S
    O243   C109      1.27674      .   S
    O291   C167      1.26871      .   S
    O303   C183      1.26783      .   S
    O242   C108      1.27635      .   S
    O290   C166      1.26820      .   S
    Zn4    O240      1.94459      .   S
    Zn4    O300      2.01919      .   S
    Zn4    O288      1.97616      .   S
    Zn5    O241      1.94830      .   S
    Zn5    O301      2.02144      .   S
    Zn5    O289      1.97352      .   S
    O304   C184      1.26145      .   S
    O305   C185      1.26163      .   S
    C184   C176      1.49848      .   S
    C185   C177      1.49976      .   S
    O240   C108      1.27167      .   S
    O241   C109      1.27204      .   S
    C165   O285      1.27415      .   S
    C165   C157      1.50653      .   S
    C164   O284      1.27470      .   S
    C164   C156      1.50636      .   S
    C109   C97       1.49382      .   S
    C235   O336      1.27582      .   S
    C235   C223      1.49753  1_565   S
    C108   C96       1.49257      .   S
    C234   O337      1.27553      .   S
    C234   C222      1.49843  1_565   S
    H37    C99       1.08133      .   S
    H36    C98       1.08892      .   S
    C183   O301      1.28208      .   S
    C183   C175      1.51234      .   S
    C182   O300      1.28185      .   S
    C182   C174      1.51042      .   S
    C166   O288      1.28172      .   S
    C166   C159      1.49614      .   S
    C167   O289      1.28154      .   S
    C167   C158      1.49555  1_655   S
    H91    C225      1.08905      .   S
    H90    C224      1.08908      .   S
    C99    C97       1.40303      .   S
    C99    C101      1.39914      .   S
    C98    C96       1.40195      .   S
    C98    C100      1.39122      .   S
    C176   C174      1.41084      .   S
    C176   C178      1.39675      .   S
    C177   C175      1.41146      .   S
    C177   C179      1.39796      .   S
    C157   C159      1.41247      .   S
    C157   C155      1.40053      .   S
    C156   C158      1.41179      .   S
    C156   C154      1.40053      .   S
    C97    C107      1.39595      .   S
    C96    C106      1.39613      .   S
    C223   C225      1.40247      .   S
    C223   C233      1.39798      .   S
    C222   C224      1.40216      .   S
    C222   C232      1.39899      .   S
    C175   C173      1.40445      .   S
    C174   C172      1.40377      .   S
    C159   C161      1.39685      .   S
    C158   C160      1.39690      .   S
    C225   C227      1.39500      .   S
    C224   C226      1.39451      .   S
    H39    C101      1.09039      .   S
    H38    C100      1.09034      .   S
    H61    C155      1.09086      .   S
    H60    C154      1.09081      .   S
    H72    C178      1.08822      .   S
    H73    C179      1.08829      .   S
    C101   C103      1.40426      .   S
    C100   C102      1.40398      .   S
    C155   C153      1.39482      .   S
    H94    C233      1.08766  1_455   S
    H95    C232      1.08772      .   S
    C154   C152      1.39497      .   S
    C178   C168      1.39573      .   S
    C233   C231      1.39585      .   S
    C179   C169      1.39632      .   S
    C232   C230      1.39706      .   S
    C161   H62       1.08774      .   S
    C161   C151      1.39900      .   S
    C160   H63       1.08778  1_455   S
    C160   C150      1.39893      .   S
    C107   H41       1.08818      .   S
    C107   C105      1.39733      .   S
    C106   H40       1.08826      .   S
    C106   C104      1.39741      .   S
    C227   H93       1.09081      .   S
    C227   C229      1.40033      .   S
    C173   H71       1.09037      .   S
    C173   C171      1.39188      .   S
    C172   H70       1.09039      .   S
    C172   C170      1.39158      .   S
    C226   H92       1.09080      .   S
    C226   C228      1.40036      .   S
    C153   C151      1.40219      .   S
    C153   H59       1.08903      .   S
    C152   C150      1.40236      .   S
    C152   H58       1.08916      .   S
    C231   C229      1.41195      .   S
    C231   C238      1.49426  1_655   S
    C102   C104      1.41070      .   S
    C102   C110      1.50970      .   S
    C103   C105      1.41111      .   S
    C103   C111      1.51193      .   S
    C230   C228      1.41164      .   S
    C230   C239      1.49641      .   S
    C151   C163      1.49845      .   S
    C150   C162      1.49877      .   S
    C168   C170      1.40184      .   S
    C168   C180      1.49228  1_565   S
    C169   C171      1.40217      .   S
    C169   C181      1.49435  1_565   S
    C229   C237      1.50641      .   S
    C228   C236      1.50520      .   S
    C105   C113      1.49856      .   S
    C104   C112      1.49924      .   S
    C171   H69       1.08900      .   S
    C170   H68       1.08891      .   S
    O344   C238      1.28147      .   S
    O344   Zn20      1.97005      .   S
    O340   C236      1.30797      .   S
    O340   Zn10      2.03075      .   S
    O345   C239      1.28138      .   S
    O345   Zn21      1.97385      .   S
    O341   C237      1.27513      .   S
    O341   Zn11      1.96626      .   S
    O244   C110      1.28240      .   S
    O244   Zn20      2.01570      .   S
    O245   C111      1.28140      .   S
    O245   Zn21      2.02015      .   S
    C238   O346      1.26826      .   S
    C239   O347      1.26909      .   S
    C110   O246      1.26743      .   S
    C111   O247      1.26788      .   S
    O281   C162      1.32320      .   S
    O281   Zn11      1.93855  1_455   S
    O280   C163      1.27558      .   S
    O280   Zn10      1.96069      .   S
    C237   O343      1.27662      .   S
    C181   O297      1.27216      .   S
    C181   O299      1.27658      .   S
    C163   O283      1.27908      .   S
    C180   O296      1.27221      .   S
    C180   O298      1.27579      .   S
    C162   O282      1.27959      .   S
    C236   O342      1.27672      .   S
    O297   Zn21      1.94670      .   S
    O296   Zn20      1.94598      .   S
    C113   O249      1.26161      .   S
    C113   O251      1.28553      .   S
    C112   O248      1.26274      .   S
    C112   O250      1.28474      .   S
    O346   Zn0       2.02827      .   S
    O246   Zn0       2.05030      .   S
    O298   Zn22      1.95973      .   S
    O299   Zn23      1.96438      .   S
    O247   Zn1       2.05797      .   S
    O347   Zn1       2.04201      .   S
    O251   Zn25      2.00731      .   S
    O250   Zn24      2.02270      .   S
    Zn11   O351      1.98320      .   S
    Zn11   O264      1.98830  1_655   S
    O283   Zn15      1.97312      .   S
    O282   Zn14      1.97422      .   S
    Zn10   O350      1.97840      .   S
    O343   Zn23      2.04071      .   S
    O342   Zn22      2.03511      .   S
    H81    O349      0.98358      .   S
    H80    O348      0.98441      .   S
    H82    O350      1.04217      .   S
    H83    O351      1.03972      .   S
    Zn23   O311      1.97351      .   S
    Zn22   O348      1.99513      .   S
    Zn22   O310      1.96867      .   S
    Zn0    O334      2.01954      .   S
    Zn1    O335      2.02053      .   S
    O349   Zn19      1.99549      .   S
    O264   H32       0.98520      .   S
    O265   Zn15      1.99260      .   S
    O265   H33       0.98427      .   S
    O266   H34       1.04002      .   S
    O266   Zn18      1.98441      .   S
    O267   H35       1.04159      .   S
    O267   Zn19      1.97965      .   S
    Zn25   O263      2.03012      .   S
    Zn25   O331      2.05588      .   S
    Zn24   O262      2.04039      .   S
    Zn24   O330      2.05264      .   S
    Zn14   O258      2.03509      .   S
    Zn14   O270      1.96045      .   S
    Zn15   O259      2.03546      .   S
    Zn15   O271      1.96396      .   S
    O258   C128      1.27694      .   S
    O259   C129      1.27717      .   S
    Zn18   O308      1.96043      .   S
    Zn18   O256      1.96491      .   S
    O334   C220      1.28469      .   S
    Zn19   O309      1.95864      .   S
    Zn19   O257      1.96625      .   S
    O310   C198      1.27887      .   S
    O311   C199      1.27867      .   S
    O335   C221      1.28531      .   S
    O263   C131      1.26918      .   S
    O262   C130      1.26860      .   S
    O331   C219      1.26785      .   S
    O330   C218      1.26803      .   S
    O270   C144      1.27543      .   S
    O271   C145      1.27590      .   S
    Zn13   O269      1.93882      .   S
    Zn13   O329      2.02057      .   S
    Zn13   O261      1.97844      .   S
    Zn12   O268      1.94525      .   S
    Zn12   O328      2.02465      .   S
    Zn12   O260      1.97307      .   S
    O332   C220      1.26234      .   S
    O333   C221      1.26238      .   S
    C220   C213      1.49949  1_455   S
    C221   C212      1.49866      .   S
    O269   C144      1.27390  1_655   S
    O268   C145      1.27246      .   S
    C128   O256      1.27464      .   S
    C128   C120      1.50668      .   S
    C129   O257      1.27419      .   S
    C129   C121      1.50688      .   S
    C198   O308      1.27577      .   S
    C198   C186      1.49705  1_545   S
    C144   C132      1.49267      .   S
    C199   O309      1.27577      .   S
    C199   C187      1.49815  1_545   S
    C145   C133      1.49415      .   S
    H52    C134      1.08906      .   S
    H53    C135      1.08912      .   S
    C219   O329      1.28205      .   S
    C219   C211      1.51141      .   S
    C218   O328      1.28120      .   S
    C218   C210      1.51146      .   S
    C130   O260      1.28138      .   S
    C130   C122      1.49629      .   S
    C131   O261      1.28066      .   S
    C131   C123      1.49434      .   S
    H74    C188      1.08902      .   S
    H75    C189      1.08899      .   S
    C134   C132      1.40192      .   S
    C134   C136      1.39222      .   S
    C135   C133      1.40213      .   S
    C135   C137      1.39218      .   S
    C213   C211      1.41125      .   S
    C213   C215      1.39680      .   S
    C212   C210      1.41088      .   S
    C212   C214      1.39728      .   S
    C120   C122      1.41186      .   S
    C120   C118      1.39996      .   S
    C121   C123      1.41176      .   S
    C121   C119      1.39955      .   S
    C132   C142      1.39558      .   S
    C133   C143      1.39622      .   S
    C186   C188      1.40247      .   S
    C186   C196      1.39797      .   S
    C187   C189      1.40233      .   S
    C187   C197      1.39852      .   S
    C211   C209      1.40427      .   S
    C122   C124      1.39713      .   S
    C123   C125      1.39607      .   S
    C210   C208      1.40309      .   S
    C188   C190      1.39466      .   S
    C189   C191      1.39504      .   S
    H55    C137      1.09040      .   S
    H54    C136      1.09040      .   S
    H44    C118      1.09075      .   S
    H45    C119      1.09070      .   S
    H88    C215      1.08816  1_455   S
    H89    C214      1.08812      .   S
    C137   C139      1.40418      .   S
    C136   C138      1.40429      .   S
    C118   C116      1.39501      .   S
    C119   C117      1.39614      .   S
    H78    C196      1.08762      .   S
    H79    C197      1.08761      .   S
    C215   C205      1.39533      .   S
    C214   C204      1.39586      .   S
    C196   C194      1.39613      .   S
    C197   C195      1.39635      .   S
    C124   H46       1.08763      .   S
    C124   C114      1.39890      .   S
    C125   H47       1.08764      .   S
    C125   C115      1.39830      .   S
    C142   H57       1.08799  1_455   S
    C142   C140      1.39667      .   S
    C143   H56       1.08823      .   S
    C143   C141      1.39751      .   S
    C190   H76       1.09077      .   S
    C190   C192      1.39967      .   S
    C209   H87       1.09039      .   S
    C209   C207      1.39228      .   S
    C191   H77       1.09085      .   S
    C191   C193      1.39984      .   S
    C208   H86       1.09052      .   S
    C208   C206      1.39305      .   S
    C116   C114      1.40244      .   S
    C116   H42       1.08967      .   S
    C117   C115      1.40237      .   S
    C117   H43       1.08903      .   S
    C138   C140      1.41100      .   S
    C138   C146      1.51114      .   S
    C194   C192      1.41141      .   S
    C194   C202      1.49420      .   S
    C139   C141      1.41128      .   S
    C139   C147      1.51215      .   S
    C195   C193      1.41151      .   S
    C195   C203      1.49519      .   S
    C115   C127      1.49797      .   S
    C114   C126      1.49887      .   S
    C205   C207      1.40181      .   S
    C205   C217      1.49402  1_545   S
    C204   C206      1.40208      .   S
    C204   C216      1.49361  1_545   S
    C192   C200      1.50726      .   S
    C193   C201      1.50691      .   S
    C140   C149      1.49824  1_455   S
    C141   C148      1.49878      .   S
    C207   H85       1.08905      .   S
    C206   H84       1.08904      .   S
    O317   C203      1.28215      .   S
    O317   Zn29      1.97021      .   S
    O316   C202      1.28108      .   S
    O316   Zn28      1.97509      .   S
    O312   C200      1.27434      .   S
    O312   Zn2       1.96792      .   S
    O313   C201      1.27367      .   S
    O313   Zn3       1.96661      .   S
    O272   C146      1.28188      .   S
    O272   Zn28      2.01548      .   S
    O273   C147      1.28297      .   S
    O273   Zn29      2.02190      .   S
    C202   O318      1.26883      .   S
    C203   O319      1.26833      .   S
    C146   O274      1.26738      .   S
    C147   O275      1.26718      .   S
    O252   C126      1.27587      .   S
    O252   Zn2       1.96234      .   S
    O253   C127      1.27614      .   S
    O253   Zn3       1.96067      .   S
    C217   O324      1.27262  1_655   S
    C217   O327      1.27565      .   S
    C127   O255      1.27849      .   S
    C126   O254      1.27917      .   S
    C216   O325      1.27258      .   S
    C216   O326      1.27557      .   S
    C200   O314      1.27654      .   S
    O324   Zn28      1.93968      .   S
    C201   O315      1.27742      .   S
    O325   Zn29      1.94284      .   S
    C149   O277      1.26270      .   S
    C149   O279      1.28442      .   S
    C148   O276      1.26315      .   S
    C148   O278      1.28438      .   S
    O275   Zn9       2.05855      .   S
    O326   Zn30      1.96241      .   S
    O274   Zn8       2.05943      .   S
    O327   Zn31      1.96821      .   S
    O318   Zn8       2.03188      .   S
    O319   Zn9       2.04247      .   S
    Zn2    O322      1.97876      .   S
    Zn3    O323      1.97930      .   S
    Zn3    O293      1.99566  1_556   S
    O314   Zn30      2.03851      .   S
    O315   Zn31      2.03522      .   S
    H64    O320      0.98554      .   S
    H65    O321      0.98437      .   S
    H66    O322      1.04396      .   S
    H67    O323      1.04302      .   S
    Zn31   O321      1.99165      .   S
    Zn30   O320      1.99201      .   S
    O264   Zn0       2.14947      .   S
    O264   Zn14      1.98914      .   S
    O265   Zn1       2.15121      .   S
    O265   Zn10      1.99354      .   S
    O266   Zn0       2.10279      .   S
    O266   Zn20      1.98940      .   S
    O267   Zn1       2.10497      .   S
    O267   Zn21      1.98496      .   S
    O292   Zn6       1.99912      .   S
    O292   Zn8       2.15289  1_554   S
    O293   Zn7       1.99740      .   S
    O293   Zn9       2.15369  1_554   S
    O294   Zn8       2.11105  1_554   S
    O294   Zn28      1.99176  1_554   S
    O295   Zn9       2.09985  1_554   S
    O295   Zn29      1.99277  1_554   S
    O320   Zn16      2.14791  1_556   S
    O320   Zn27      1.99347  1_556   S
    O321   Zn17      2.14977  1_556   S
    O321   Zn26      1.99469  1_656   S
    O322   Zn4       1.98515  1_556   S
    O322   Zn16      2.09984  1_556   S
    O323   Zn5       1.98303  1_556   S
    O323   Zn17      2.10399  1_556   S
    O348   Zn18      1.99782      .   S
    O348   Zn24      2.14497      .   S
    O349   Zn23      1.99823      .   S
    O349   Zn25      2.15607      .   S
    O350   Zn12      1.98429      .   S
    O350   Zn24      2.10514      .   S
    O351   Zn13      1.98508      .   S
    O351   Zn25      2.10935      .   S
