# CIF file generated by openbabel 2.4.90, see http://openbabel.sf.net
data_I
_chemical_name_common ''
_cell_length_a 20.75
_cell_length_b 25.128
_cell_length_c 20.218
_cell_angle_alpha 90.024
_cell_angle_beta 89.988
_cell_angle_gamma 90.036
_space_group_name_H-M_alt 'P 1'
_space_group_name_Hall 'P 1'
loop_
    _symmetry_equiv_pos_as_xyz
    x,y,z
loop_
    _atom_site_label
    _atom_site_type_symbol
    _atom_site_fract_x
    _atom_site_fract_y
    _atom_site_fract_z
    _atom_site_occupancy
    N0      N    0.37624   0.05840   0.44883   1.000
    N1      N    0.37376   0.25066   0.76085   1.000
    N2      N    0.62635   0.69164   0.55114   1.000
    N3      N    0.12635   0.69164   0.55114   1.000
    N4      N    0.62636   0.19159   0.55118   1.000
    N5      N    0.12615   0.50045   0.73910   1.000
    N6      N    0.62614   0.00052   0.73914   1.000
    N7      N    0.62615   0.50045   0.73910   1.000
    N8      N    0.37378   0.75072   0.76081   1.000
    N9      N    0.87621   0.24944   0.26086   1.000
    N10     N    0.87376   0.25066   0.76081   1.000
    N11     N    0.37621   0.74944   0.26085   1.000
    N12     N    0.62372   0.99946   0.23916   1.000
    N13     N    0.62372   0.49946   0.23915   1.000
    N14     N    0.12360   0.30839   0.05106   1.000
    N15     N    0.12360   0.80847   0.05112   1.000
    N16     N    0.62360   0.30840   0.05106   1.000
    N17     N    0.62360   0.80847   0.05112   1.000
    N18     N    0.87352   0.94162   0.94953   1.000
    N19     N    0.12372   0.99946   0.23916   1.000
    N20     N    0.12614   0.00052   0.73914   1.000
    N21     N    0.37353   0.44162   0.94953   1.000
    N22     N    0.37352   0.94162   0.94951   1.000
    N23     N    0.87353   0.44162   0.94953   1.000
    N24     N    0.37621   0.24944   0.26086   1.000
    N25     N    0.12372   0.49946   0.23915   1.000
    N26     N    0.87621   0.74944   0.26085   1.000
    N27     N    0.87378   0.75072   0.76081   1.000
    N28     N    0.12636   0.19159   0.55118   1.000
    N29     N    0.37623   0.55840   0.44883   1.000
    N30     N    0.87624   0.05840   0.44882   1.000
    N31     N    0.87623   0.55840   0.44883   1.000
    Zr32    Zr   0.46629   0.30343   0.01119   1.000
    O33     O    0.51635   0.30832   0.02036   1.000
    O34     O    0.44034   0.28563   0.08388   1.000
    O35     O    0.43632   0.34636   0.99616   1.000
    O36     O    0.43946   0.28620   0.93819   1.000
    Zr37    Zr   0.96628   0.80344   0.01119   1.000
    O38     O    0.94034   0.78564   0.08388   1.000
    O39     O    0.93947   0.78623   0.93818   1.000
    O40     O    0.93631   0.84636   0.99615   1.000
    O41     O    0.01635   0.80835   0.02038   1.000
    Zr42    Zr   0.53365   0.05346   0.48881   1.000
    O43     O    0.55959   0.03565   0.41613   1.000
    O44     O    0.56042   0.03620   0.56182   1.000
    O45     O    0.56363   0.09637   0.50403   1.000
    O46     O    0.48357   0.05834   0.47958   1.000
    Zr47    Zr   0.06416   0.91182   0.98887   1.000
    O48     O    0.08242   0.93862   0.91570   1.000
    O49     O    0.08142   0.93838   0.06219   1.000
    O50     O    0.00498   0.92275   0.97766   1.000
    Zr51    Zr   0.71635   0.44654   0.98889   1.000
    O52     O    0.68637   0.40363   0.00405   1.000
    O53     O    0.68949   0.46383   0.06185   1.000
    O54     O    0.69040   0.46427   0.91613   1.000
    O55     O    0.76639   0.44172   0.98004   1.000
    Zr56    Zr   0.78372   0.19656   0.51119   1.000
    O57     O    0.81364   0.15364   0.49597   1.000
    O58     O    0.81052   0.21381   0.43819   1.000
    O59     O    0.73365   0.19167   0.52041   1.000
    O60     O    0.80965   0.21439   0.58382   1.000
    Zr61    Zr   0.71634   0.94656   0.98888   1.000
    O62     O    0.68636   0.90366   0.00406   1.000
    O63     O    0.76638   0.94173   0.98003   1.000
    O64     O    0.68949   0.96384   0.06185   1.000
    O65     O    0.69039   0.96431   0.91613   1.000
    Zr66    Zr   0.28372   0.69657   0.51119   1.000
    O67     O    0.31052   0.71382   0.43819   1.000
    O68     O    0.31364   0.65365   0.49597   1.000
    O69     O    0.23364   0.69168   0.52040   1.000
    O70     O    0.30966   0.71442   0.58387   1.000
    Zr71    Zr   0.78372   0.69657   0.51119   1.000
    O72     O    0.81052   0.71382   0.43819   1.000
    O73     O    0.81364   0.65365   0.49597   1.000
    O74     O    0.80966   0.71442   0.58387   1.000
    O75     O    0.73364   0.69168   0.52040   1.000
    Zr76    Zr   0.93583   0.66185   0.51111   1.000
    O77     O    0.91855   0.68839   0.43780   1.000
    O78     O    0.99499   0.67277   0.52251   1.000
    O79     O    0.91756   0.68869   0.58428   1.000
    Zr80    Zr   0.68581   0.08816   0.48800   1.000
    O81     O    0.74494   0.07725   0.47693   1.000
    O82     O    0.66753   0.06136   0.41516   1.000
    O83     O    0.66850   0.06160   0.56164   1.000
    Zr84    Zr   0.28372   0.19656   0.51119   1.000
    O85     O    0.23365   0.19167   0.52041   1.000
    O86     O    0.31052   0.21381   0.43819   1.000
    O87     O    0.30965   0.21439   0.58388   1.000
    O88     O    0.31364   0.15364   0.49597   1.000
    Zr89    Zr   0.81415   0.33825   0.01123   1.000
    O90     O    0.83243   0.31141   0.08437   1.000
    O91     O    0.83143   0.31171   0.93787   1.000
    O92     O    0.75499   0.32731   0.02256   1.000
    Zr93    Zr   0.81414   0.83826   0.01123   1.000
    O94     O    0.83143   0.81173   0.93786   1.000
    O95     O    0.83242   0.81142   0.08437   1.000
    O96     O    0.75498   0.82733   0.02257   1.000
    Zr97    Zr   0.31414   0.83826   0.01123   1.000
    O98     O    0.33143   0.81173   0.93786   1.000
    O99     O    0.25498   0.82733   0.02257   1.000
    O100    O    0.33242   0.81142   0.08437   1.000
    Zr101   Zr   0.68581   0.58817   0.48890   1.000
    O102    O    0.66850   0.56159   0.56220   1.000
    O103    O    0.66753   0.56137   0.41572   1.000
    O104    O    0.74494   0.57726   0.47750   1.000
    Zr105   Zr   0.31415   0.33825   0.01123   1.000
    O106    O    0.33243   0.31141   0.08437   1.000
    O107    O    0.25499   0.32731   0.02256   1.000
    O108    O    0.33143   0.31171   0.93787   1.000
    Zr109   Zr   0.53365   0.55346   0.48881   1.000
    O110    O    0.48356   0.55834   0.47958   1.000
    O111    O    0.55959   0.53565   0.41612   1.000
    O112    O    0.56362   0.59638   0.50402   1.000
    O113    O    0.56043   0.53619   0.56181   1.000
    Zr114   Zr   0.06417   0.41181   0.98887   1.000
    O115    O    0.08143   0.43837   0.06219   1.000
    O116    O    0.00499   0.42274   0.97767   1.000
    O117    O    0.08243   0.43859   0.91568   1.000
    Zr118   Zr   0.18581   0.58817   0.48890   1.000
    O119    O    0.24494   0.57726   0.47750   1.000
    O120    O    0.16753   0.56137   0.41572   1.000
    O121    O    0.16850   0.56159   0.56220   1.000
    Zr122   Zr   0.96629   0.30343   0.01119   1.000
    O123    O    0.01635   0.30832   0.02036   1.000
    O124    O    0.93946   0.28621   0.93818   1.000
    O125    O    0.93632   0.34636   0.99616   1.000
    O126    O    0.94034   0.28563   0.08388   1.000
    Zr127   Zr   0.18581   0.08816   0.48800   1.000
    O128    O    0.16753   0.06136   0.41516   1.000
    O129    O    0.16850   0.06160   0.56164   1.000
    O130    O    0.24494   0.07725   0.47693   1.000
    Zr131   Zr   0.46628   0.80344   0.01119   1.000
    O132    O    0.51635   0.80835   0.02038   1.000
    O133    O    0.44034   0.78564   0.08388   1.000
    O134    O    0.43631   0.84636   0.99615   1.000
    O135    O    0.43947   0.78623   0.93818   1.000
    Zr136   Zr   0.56417   0.41181   0.98887   1.000
    O137    O    0.50499   0.42274   0.97767   1.000
    O138    O    0.58143   0.43837   0.06218   1.000
    O139    O    0.58243   0.43859   0.91568   1.000
    Zr140   Zr   0.56416   0.91182   0.98887   1.000
    O141    O    0.58242   0.93862   0.91570   1.000
    O142    O    0.50498   0.92275   0.97766   1.000
    O143    O    0.58143   0.93838   0.06219   1.000
    Zr144   Zr   0.21635   0.44654   0.98889   1.000
    O145    O    0.18637   0.40363   0.00405   1.000
    O146    O    0.26639   0.44172   0.98004   1.000
    O147    O    0.18949   0.46383   0.06185   1.000
    O148    O    0.19040   0.46427   0.91613   1.000
    Zr149   Zr   0.03365   0.05346   0.48881   1.000
    O150    O    0.98357   0.05834   0.47958   1.000
    O151    O    0.06042   0.03620   0.56182   1.000
    O152    O    0.06363   0.09637   0.50403   1.000
    O153    O    0.05959   0.03565   0.41613   1.000
    Zr154   Zr   0.43584   0.16184   0.51111   1.000
    O155    O    0.41855   0.18839   0.43780   1.000
    O156    O    0.41755   0.18867   0.58429   1.000
    O157    O    0.49499   0.17275   0.52251   1.000
    Zr158   Zr   0.03365   0.55346   0.48881   1.000
    O159    O    0.06362   0.59638   0.50402   1.000
    O160    O    0.98356   0.55835   0.47958   1.000
    O161    O    0.05959   0.53565   0.41612   1.000
    O162    O    0.06043   0.53619   0.56181   1.000
    Zr163   Zr   0.93584   0.16184   0.51111   1.000
    O164    O    0.91755   0.18867   0.58427   1.000
    O165    O    0.99499   0.17275   0.52251   1.000
    O166    O    0.91855   0.18839   0.43780   1.000
    Zr167   Zr   0.21634   0.94656   0.98888   1.000
    O168    O    0.18636   0.90366   0.00406   1.000
    O169    O    0.26638   0.94173   0.98003   1.000
    O170    O    0.18949   0.96384   0.06185   1.000
    O171    O    0.19038   0.96432   0.91613   1.000
    Zr172   Zr   0.43583   0.66185   0.51111   1.000
    O173    O    0.41855   0.68839   0.43780   1.000
    O174    O    0.41756   0.68869   0.58428   1.000
    O175    O    0.49499   0.67277   0.52251   1.000
    O176    O    0.08439   0.37899   0.00522   1.000
    O177    O    0.08439   0.87902   0.00524   1.000
    O178    O    0.58439   0.87902   0.00524   1.000
    O179    O    0.83437   0.87108   0.99509   1.000
    O180    O    0.91557   0.62902   0.49472   1.000
    O181    O    0.33437   0.87108   0.99508   1.000
    O182    O    0.83437   0.37108   0.99509   1.000
    O183    O    0.91557   0.12901   0.49472   1.000
    O184    O    0.66559   0.12099   0.50472   1.000
    O185    O    0.41557   0.62902   0.49472   1.000
    O186    O    0.41557   0.12901   0.49472   1.000
    O187    O    0.16559   0.12099   0.50472   1.000
    O188    O    0.58439   0.37899   0.00522   1.000
    O189    O    0.33437   0.37108   0.99509   1.000
    O190    O    0.16559   0.62101   0.50528   1.000
    O191    O    0.66559   0.62101   0.50528   1.000
loop_
    _geom_bond_atom_site_label_1
    _geom_bond_atom_site_label_2
    _geom_bond_distance
    _geom_bond_site_symmetry_2
    _ccdc_geom_bond_type
    Zr32   O33       1.06237      .   S
    N16    O33       2.31055      .   S
    Zr32   O34       1.62781      .   S
    N24    O34       3.92425      .   S
    Zr32   O35       1.28207  1_554   S
    N21    O35       2.88488      .   S
    Zr32   O36       1.63549  1_554   S
    N1     O36       3.93841      .   S
    Zr37   O38       1.62782      .   S
    N26    O38       3.92423      .   S
    Zr37   O39       1.63553  1_554   S
    N27    O39       3.93851      .   S
    Zr37   O40       1.28204  1_554   S
    N18    O40       2.88479      .   S
    Zr37   O41       1.06245  1_655   S
    N15    O41       2.31070      .   S
    Zr42   O43       1.62757      .   S
    N12    O43       3.92380  1_565   S
    Zr42   O44       1.63604      .   S
    N6     O44       3.93980      .   S
    Zr42   O45       1.28186      .   S
    N4     O45       2.88503      .   S
    Zr42   O46       1.06315      .   S
    N0     O46       2.31233      .   S
    Zr47   O48       1.66912      .   S
    N20    O48       3.99827  1_545   S
    Zr47   O49       1.66443  1_556   S
    N19    O49       3.99021      .   S
    Zr47   O50       1.27876      .   S
    N18    O50       2.82700  1_655   S
    Zr51   O52       1.28189  1_556   S
    N16    O52       2.88503      .   S
    Zr51   O53       1.63542  1_556   S
    N13    O53       3.93828      .   S
    Zr51   O54       1.62896      .   S
    N7     O54       3.92682      .   S
    Zr51   O55       1.06068      .   S
    N23    O55       2.30709      .   S
    Zr56   O57       1.28204      .   S
    N30    O57       2.88531      .   S
    Zr56   O58       1.63560      .   S
    N9     O58       3.93872      .   S
    Zr56   O59       1.06274      .   S
    N4     O59       2.31141      .   S
    Zr56   O60       1.62671      .   S
    N10    O60       3.92460      .   S
    Zr61   O62       1.28165  1_556   S
    N17    O62       2.88442      .   S
    Zr61   O63       1.06068      .   S
    N18    O63       2.30705      .   S
    Zr61   O64       1.63545  1_556   S
    N12    O64       3.93840      .   S
    Zr61   O65       1.62891      .   S
    N6     O65       3.92642  1_545   S
    Zr66   O67       1.63561      .   S
    N11    O67       3.93874      .   S
    Zr66   O68       1.28205      .   S
    N29    O68       2.88536      .   S
    Zr66   O69       1.06270      .   S
    N3     O69       2.31133      .   S
    Zr66   O70       1.62774      .   S
    N8     O70       3.92405      .   S
    Zr71   O72       1.63561      .   S
    N26    O72       3.93874      .   S
    Zr71   O73       1.28205      .   S
    N31    O73       2.88535      .   S
    Zr71   O74       1.62774      .   S
    N27    O74       3.92405      .   S
    Zr71   O75       1.06270      .   S
    N2     O75       2.31133      .   S
    Zr76   O77       1.66493      .   S
    N26    O77       3.99130      .   S
    Zr76   O78       1.27856      .   S
    N3     O78       2.82638  1_455   S
    Zr76   O79       1.66932      .   S
    N27    O79       3.99863      .   S
    Zr80   O81       1.27700      .   S
    N30    O81       2.82324      .   S
    Zr80   O82       1.66298      .   S
    N12    O82       3.98785  1_565   S
    Zr80   O83       1.67086      .   S
    N6     O83       4.00095      .   S
    Zr84   O85       1.06274      .   S
    N28    O85       2.31141      .   S
    Zr84   O86       1.63560      .   S
    N24    O86       3.93872      .   S
    Zr84   O87       1.62777      .   S
    N1     O87       3.92413      .   S
    Zr84   O88       1.28203      .   S
    N0     O88       2.88531      .   S
    Zr89   O90       1.66936      .   S
    N9     O90       3.99880      .   S
    Zr89   O91       1.66512  1_554   S
    N10    O91       3.99183      .   S
    Zr89   O92       1.27849      .   S
    N16    O92       2.82633      .   S
    Zr93   O94       1.66502  1_554   S
    N27    O94       3.99149      .   S
    Zr93   O95       1.66936      .   S
    N26    O95       3.99879      .   S
    Zr93   O96       1.27845      .   S
    N17    O96       2.82629      .   S
    Zr97   O98       1.66502  1_554   S
    N8     O98       3.99149      .   S
    Zr97   O99       1.27845      .   S
    N15    O99       2.82629      .   S
    Zr97   O100      1.66936      .   S
    N11    O100      3.99879      .   S
    Zr101  O102      1.66480      .   S
    N7     O102      3.99077      .   S
    Zr101  O103      1.66907      .   S
    N13    O103      3.99814      .   S
    Zr101  O104      1.27821      .   S
    N31    O104      2.82552      .   S
    Zr105  O106      1.66936      .   S
    N24    O106      3.99880      .   S
    Zr105  O107      1.27850      .   S
    N14    O107      2.82634      .   S
    Zr105  O108      1.66497  1_554   S
    N1     O108      3.99139      .   S
    Zr109  O110      1.06316      .   S
    N29    O110      2.31238      .   S
    Zr109  O111      1.62763      .   S
    N13    O111      3.92393      .   S
    Zr109  O112      1.28203      .   S
    N2     O112      2.88535      .   S
    Zr109  O113      1.63602      .   S
    N7     O113      3.93976      .   S
    Zr114  O115      1.66446  1_556   S
    N25    O115      3.99026      .   S
    Zr114  O116      1.27874      .   S
    N23    O116      2.82696  1_655   S
    Zr114  O117      1.66922      .   S
    N5     O117      3.99833      .   S
    Zr118  O119      1.27821      .   S
    N29    O119      2.82551      .   S
    Zr118  O120      1.66904      .   S
    N25    O120      3.99807      .   S
    Zr118  O121      1.66479      .   S
    N5     O121      3.99074      .   S
    Zr122  O123      1.06237  1_655   S
    N14    O123      2.31055      .   S
    Zr122  O124      1.63564  1_554   S
    N10    O124      3.93886      .   S
    Zr122  O125      1.28207  1_554   S
    N23    O125      2.88488      .   S
    Zr122  O126      1.62781      .   S
    N9     O126      3.92425      .   S
    Zr127  O128      1.66298      .   S
    N19    O128      3.98784  1_565   S
    Zr127  O129      1.67086      .   S
    N20    O129      4.00095      .   S
    Zr127  O130      1.27701      .   S
    N0     O130      2.82324      .   S
    Zr131  O132      1.06245      .   S
    N17    O132      2.31070      .   S
    Zr131  O133      1.62782      .   S
    N11    O133      3.92424      .   S
    Zr131  O134      1.28206  1_554   S
    N22    O134      2.88487      .   S
    Zr131  O135      1.63553  1_554   S
    N8     O135      3.93851      .   S
    Zr136  O137      1.27874      .   S
    N21    O137      2.82696      .   S
    Zr136  O138      1.66423  1_556   S
    N13    O138      3.99039      .   S
    Zr136  O139      1.66922      .   S
    N7     O139      3.99831      .   S
    Zr140  O141      1.66912      .   S
    N6     O141      3.99826  1_545   S
    Zr140  O142      1.27878      .   S
    N22    O142      2.82706      .   S
    Zr140  O143      1.66443  1_556   S
    N12    O143      3.99020      .   S
    Zr144  O145      1.28189  1_556   S
    N14    O145      2.88503      .   S
    Zr144  O146      1.06068      .   S
    N21    O146      2.30708      .   S
    Zr144  O147      1.63544  1_556   S
    N25    O147      3.93836      .   S
    Zr144  O148      1.62897      .   S
    N5     O148      3.92685      .   S
    Zr149  O150      1.06315  1_455   S
    N30    O150      2.31233      .   S
    Zr149  O151      1.63604      .   S
    N20    O151      3.93980      .   S
    Zr149  O152      1.28186      .   S
    N28    O152      2.88502      .   S
    Zr149  O153      1.62757      .   S
    N19    O153      3.92380  1_565   S
    Zr154  O155      1.66493      .   S
    N24    O155      3.99128      .   S
    Zr154  O156      1.66936      .   S
    N1     O156      3.99872      .   S
    Zr154  O157      1.27855      .   S
    N4     O157      2.82641      .   S
    Zr158  O159      1.28203      .   S
    N3     O159      2.88535      .   S
    Zr158  O160      1.06316  1_455   S
    N31    O160      2.31237      .   S
    Zr158  O161      1.62761      .   S
    N25    O161      3.92385      .   S
    Zr158  O162      1.63601      .   S
    N5     O162      3.93973      .   S
    Zr163  O164      1.66903      .   S
    N10    O164      3.99846      .   S
    Zr163  O165      1.27855      .   S
    N28    O165      2.82641  1_455   S
    Zr163  O166      1.66493      .   S
    N9     O166      3.99128      .   S
    Zr167  O168      1.28165  1_556   S
    N15    O168      2.88442      .   S
    Zr167  O169      1.06069      .   S
    N22    O169      2.30711      .   S
    Zr167  O170      1.63545  1_556   S
    N19    O170      3.93840      .   S
    Zr167  O171      1.62891      .   S
    N20    O171      3.92643  1_545   S
    Zr172  O173      1.66493      .   S
    N11    O173      3.99130      .   S
    Zr172  O174      1.66932      .   S
    N8     O174      3.99863      .   S
    Zr172  O175      1.27856      .   S
    N2     O175      2.82638      .   S
    Zr114  O176      0.98311  1_556   S
    N14    O176      2.16120      .   S
    N15    O177      2.16054      .   S
    Zr47   O177      0.98285  1_556   S
    N17    O178      2.16054      .   S
    Zr140  O178      0.98285  1_556   S
    N18    O179      2.15639      .   S
    Zr93   O179      0.98114  1_554   S
    Zr76   O180      0.98320      .   S
    N31    O180      2.16171      .   S
    N22    O181      2.15649      .   S
    Zr97   O181      0.98117  1_554   S
    N23    O182      2.15651      .   S
    Zr89   O182      0.98118  1_554   S
    N30    O183      2.16163      .   S
    Zr163  O183      0.98317      .   S
    Zr80   O184      0.98541      .   S
    N4     O184      2.16628      .   S
    N29    O185      2.16172      .   S
    Zr172  O185      0.98320      .   S
    Zr154  O186      0.98317      .   S
    N0     O186      2.16163      .   S
    N28    O187      2.16628      .   S
    Zr127  O187      0.98540      .   S
    Zr136  O188      0.98311  1_556   S
    N16    O188      2.16120      .   S
    N21    O189      2.15650      .   S
    Zr105  O189      0.98117  1_554   S
    Zr118  O190      0.98323      .   S
    N3     O190      2.16167      .   S
    Zr101  O191      0.98323      .   S
    N2     O191      2.16167      .   S
