# CIF file generated by openbabel 2.4.90, see http://openbabel.sf.net
data_I
_chemical_name_common ''
_cell_length_a 20.75
_cell_length_b 25.128
_cell_length_c 20.218
_cell_angle_alpha 90.024
_cell_angle_beta 89.988
_cell_angle_gamma 90.036
_space_group_name_H-M_alt 'P 1'
_space_group_name_Hall 'P 1'
loop_
    _symmetry_equiv_pos_as_xyz
    x,y,z
loop_
    _atom_site_label
    _atom_site_type_symbol
    _atom_site_fract_x
    _atom_site_fract_y
    _atom_site_fract_z
    _atom_site_occupancy
    Zr0     Zr   0.46629   0.30343   0.01119   1.000
    Zr1     Zr   0.46628   0.80344   0.01119   1.000
    Zr2     Zr   0.96629   0.30343   0.01119   1.000
    Zr3     Zr   0.96628   0.80344   0.01119   1.000
    Zr4     Zr   0.31415   0.33825   0.01123   1.000
    Zr5     Zr   0.31414   0.83826   0.01123   1.000
    Zr6     Zr   0.81415   0.33825   0.01123   1.000
    Zr7     Zr   0.81414   0.83826   0.01123   1.000
    Zr8     Zr   0.28372   0.19656   0.51119   1.000
    Zr9     Zr   0.28372   0.69657   0.51119   1.000
    Zr10    Zr   0.78372   0.19656   0.51119   1.000
    Zr11    Zr   0.78372   0.69657   0.51119   1.000
    Zr12    Zr   0.43584   0.16184   0.51111   1.000
    Zr13    Zr   0.43583   0.66185   0.51111   1.000
    Zr14    Zr   0.93584   0.16184   0.51111   1.000
    Zr15    Zr   0.93583   0.66185   0.51111   1.000
    Zr16    Zr   0.03365   0.05346   0.48881   1.000
    Zr17    Zr   0.03365   0.55346   0.48881   1.000
    Zr18    Zr   0.53365   0.05346   0.48881   1.000
    Zr19    Zr   0.53365   0.55346   0.48881   1.000
    Zr20    Zr   0.18581   0.08816   0.48800   1.000
    Zr21    Zr   0.18581   0.58817   0.48890   1.000
    Zr22    Zr   0.68581   0.08816   0.48800   1.000
    Zr23    Zr   0.68581   0.58817   0.48890   1.000
    Zr24    Zr   0.21635   0.44654   0.98889   1.000
    Zr25    Zr   0.21634   0.94656   0.98888   1.000
    Zr26    Zr   0.71635   0.44654   0.98889   1.000
    Zr27    Zr   0.71634   0.94656   0.98888   1.000
    Zr28    Zr   0.06417   0.41181   0.98887   1.000
    Zr29    Zr   0.06416   0.91182   0.98887   1.000
    Zr30    Zr   0.56417   0.41181   0.98887   1.000
    Zr31    Zr   0.56416   0.91182   0.98887   1.000
    N32     N    0.37624   0.05840   0.44883   1.000
    O33     O    0.30407   0.06634   0.46587   1.000
    O34     O    0.43348   0.06322   0.47035   1.000
    O35     O    0.40903   0.09032   0.47593   1.000
    O36     O    0.38158   0.10204   0.48073   1.000
    O37     O    0.34356   0.11072   0.48075   1.000
    N38     N    0.37376   0.25066   0.76085   1.000
    O39     O    0.41264   0.26898   0.86520   1.000
    O40     O    0.33558   0.23222   0.65657   1.000
    O41     O    0.34870   0.28517   0.86452   1.000
    O42     O    0.39927   0.21550   0.65747   1.000
    N43     N    0.62635   0.69164   0.55114   1.000
    O44     O    0.59359   0.63931   0.51924   1.000
    O45     O    0.63163   0.64798   0.51926   1.000
    O46     O    0.55415   0.68368   0.53390   1.000
    O47     O    0.68356   0.68680   0.52962   1.000
    O48     O    0.65909   0.65970   0.52405   1.000
    N49     N    0.12635   0.69164   0.55114   1.000
    O50     O    0.05415   0.68368   0.53390   1.000
    O51     O    0.09359   0.63931   0.51924   1.000
    O52     O    0.13163   0.64798   0.51926   1.000
    O53     O    0.18356   0.68680   0.52962   1.000
    O54     O    0.15909   0.65970   0.52405   1.000
    N55     N    0.62636   0.19159   0.55118   1.000
    O56     O    0.55415   0.18366   0.53392   1.000
    O57     O    0.59360   0.13928   0.51924   1.000
    O58     O    0.63164   0.14796   0.51904   1.000
    O59     O    0.68357   0.18678   0.52964   1.000
    O60     O    0.65909   0.15968   0.52384   1.000
    N61     N    0.12615   0.50045   0.73910   1.000
    O62     O    0.08720   0.51891   0.63481   1.000
    O63     O    0.16445   0.48199   0.84337   1.000
    O64     O    0.10068   0.46538   0.84249   1.000
    O65     O    0.15119   0.53501   0.63550   1.000
    N66     N    0.62614   0.00052   0.73914   1.000
    O67     O    0.58719   0.01895   0.63483   1.000
    O68     O    0.66443   0.98207   0.84339   1.000
    O69     O    0.65119   0.03504   0.63529   1.000
    O70     O    0.60068   0.96542   0.84252   1.000
    N71     N    0.62615   0.50045   0.73910   1.000
    O72     O    0.58720   0.51891   0.63481   1.000
    O73     O    0.66445   0.48199   0.84337   1.000
    O74     O    0.65119   0.53501   0.63550   1.000
    O75     O    0.60068   0.46538   0.84249   1.000
    N76     N    0.37378   0.75072   0.76081   1.000
    O77     O    0.41265   0.76902   0.86518   1.000
    O78     O    0.33559   0.73227   0.65655   1.000
    O79     O    0.34871   0.78521   0.86450   1.000
    O80     O    0.39928   0.71554   0.65745   1.000
    N81     N    0.87621   0.24944   0.26086   1.000
    O82     O    0.90127   0.21493   0.36448   1.000
    O83     O    0.83732   0.23107   0.36520   1.000
    O84     O    0.91440   0.26783   0.15658   1.000
    O85     O    0.85070   0.28457   0.15751   1.000
    N86     N    0.87376   0.25066   0.76081   1.000
    O87     O    0.91264   0.26898   0.86518   1.000
    O88     O    0.83558   0.23223   0.65645   1.000
    O89     O    0.84870   0.28517   0.86450   1.000
    O90     O    0.89927   0.21550   0.65743   1.000
    N91     N    0.37621   0.74944   0.26085   1.000
    O92     O    0.40126   0.71494   0.36448   1.000
    O93     O    0.33732   0.73107   0.36519   1.000
    O94     O    0.41440   0.76784   0.15657   1.000
    O95     O    0.35070   0.78457   0.15751   1.000
    N96     N    0.62372   0.99946   0.23916   1.000
    O97     O    0.64924   0.03456   0.34231   1.000
    O98     O    0.58554   0.01784   0.34344   1.000
    O99     O    0.59869   0.96493   0.13552   1.000
    O100    O    0.66264   0.98111   0.13482   1.000
    N101    N    0.62372   0.49946   0.23915   1.000
    O102    O    0.64924   0.53457   0.34253   1.000
    O103    O    0.58553   0.51784   0.34343   1.000
    O104    O    0.66264   0.48111   0.13482   1.000
    O105    O    0.59869   0.46493   0.13549   1.000
    N106    N    0.12360   0.30839   0.05106   1.000
    O107    O    0.15639   0.36071   0.01921   1.000
    O108    O    0.11835   0.35203   0.01921   1.000
    O109    O    0.19583   0.31636   0.03389   1.000
    O110    O    0.06642   0.31320   0.02953   1.000
    O111    O    0.09089   0.34030   0.02395   1.000
    N112    N    0.12360   0.80847   0.05112   1.000
    O113    O    0.15639   0.86076   0.01923   1.000
    O114    O    0.11834   0.85207   0.01923   1.000
    O115    O    0.19582   0.81641   0.03392   1.000
    O116    O    0.06641   0.81325   0.02956   1.000
    O117    O    0.09088   0.84034   0.02398   1.000
    N118    N    0.62360   0.30840   0.05106   1.000
    O119    O    0.65639   0.36071   0.01921   1.000
    O120    O    0.61835   0.35203   0.01921   1.000
    O121    O    0.69583   0.31636   0.03389   1.000
    O122    O    0.56642   0.31320   0.02953   1.000
    O123    O    0.59089   0.34030   0.02395   1.000
    N124    N    0.62360   0.80847   0.05112   1.000
    O125    O    0.65639   0.86076   0.01923   1.000
    O126    O    0.61834   0.85207   0.01923   1.000
    O127    O    0.69582   0.81641   0.03392   1.000
    O128    O    0.56641   0.81325   0.02956   1.000
    O129    O    0.59089   0.84034   0.02398   1.000
    N130    N    0.87352   0.94162   0.94953   1.000
    O131    O    0.84087   0.90982   0.97677   1.000
    O132    O    0.81642   0.93690   0.97118   1.000
    O133    O    0.94580   0.93367   0.96646   1.000
    O134    O    0.90634   0.88929   0.98112   1.000
    O135    O    0.86830   0.89799   0.98113   1.000
    N136    N    0.12372   0.99946   0.23916   1.000
    O137    O    0.14924   0.03456   0.34231   1.000
    O138    O    0.16264   0.98111   0.13482   1.000
    O139    O    0.08554   0.01784   0.34344   1.000
    O140    O    0.09868   0.96493   0.13552   1.000
    N141    N    0.12614   0.00052   0.73914   1.000
    O142    O    0.16443   0.98207   0.84339   1.000
    O143    O    0.10068   0.96542   0.84252   1.000
    O144    O    0.15119   0.03504   0.63529   1.000
    O145    O    0.08719   0.01895   0.63483   1.000
    N146    N    0.37353   0.44162   0.94953   1.000
    O147    O    0.34088   0.40982   0.97677   1.000
    O148    O    0.31643   0.43689   0.97119   1.000
    O149    O    0.40635   0.38928   0.98112   1.000
    O150    O    0.36831   0.39799   0.98113   1.000
    O151    O    0.44581   0.43367   0.96646   1.000
    N152    N    0.37352   0.94162   0.94951   1.000
    O153    O    0.44580   0.93367   0.96645   1.000
    O154    O    0.34087   0.90982   0.97676   1.000
    O155    O    0.31642   0.93690   0.97117   1.000
    O156    O    0.40634   0.88929   0.98111   1.000
    O157    O    0.36830   0.89799   0.98112   1.000
    N158    N    0.87353   0.44162   0.94953   1.000
    O159    O    0.84088   0.40982   0.97677   1.000
    O160    O    0.81643   0.43689   0.97119   1.000
    O161    O    0.94581   0.43367   0.96646   1.000
    O162    O    0.90635   0.38928   0.98112   1.000
    O163    O    0.86831   0.39799   0.98113   1.000
    N164    N    0.37621   0.24944   0.26086   1.000
    O165    O    0.40127   0.21493   0.36448   1.000
    O166    O    0.33732   0.23107   0.36520   1.000
    O167    O    0.41440   0.26783   0.15658   1.000
    O168    O    0.35070   0.28457   0.15751   1.000
    N169    N    0.12372   0.49946   0.23915   1.000
    O170    O    0.08553   0.51784   0.34344   1.000
    O171    O    0.14924   0.53457   0.34254   1.000
    O172    O    0.16264   0.48111   0.13482   1.000
    O173    O    0.09869   0.46493   0.13552   1.000
    N174    N    0.87621   0.74944   0.26085   1.000
    O175    O    0.90126   0.71494   0.36448   1.000
    O176    O    0.83732   0.73107   0.36519   1.000
    O177    O    0.91440   0.76784   0.15657   1.000
    O178    O    0.85070   0.78457   0.15751   1.000
    N179    N    0.87378   0.75072   0.76081   1.000
    O180    O    0.91265   0.76902   0.86518   1.000
    O181    O    0.83559   0.73227   0.65655   1.000
    O182    O    0.84871   0.78521   0.86450   1.000
    O183    O    0.89928   0.71554   0.65745   1.000
    N184    N    0.12636   0.19159   0.55118   1.000
    O185    O    0.05415   0.18366   0.53392   1.000
    O186    O    0.18357   0.18678   0.52964   1.000
    O187    O    0.15909   0.15968   0.52384   1.000
    O188    O    0.09360   0.13928   0.51924   1.000
    O189    O    0.13164   0.14796   0.51904   1.000
    N190    N    0.37623   0.55840   0.44883   1.000
    O191    O    0.38158   0.60205   0.48073   1.000
    O192    O    0.34355   0.61073   0.48075   1.000
    O193    O    0.30406   0.56634   0.46609   1.000
    O194    O    0.43347   0.56323   0.47035   1.000
    O195    O    0.40902   0.59032   0.47593   1.000
    N196    N    0.87624   0.05840   0.44882   1.000
    O197    O    0.88158   0.10204   0.48073   1.000
    O198    O    0.84356   0.11072   0.48075   1.000
    O199    O    0.80407   0.06634   0.46587   1.000
    O200    O    0.93348   0.06322   0.47035   1.000
    O201    O    0.90903   0.09032   0.47593   1.000
    N202    N    0.87623   0.55840   0.44883   1.000
    O203    O    0.84355   0.61073   0.48075   1.000
    O204    O    0.88158   0.60205   0.48073   1.000
    O205    O    0.80406   0.56634   0.46609   1.000
    O206    O    0.93347   0.56323   0.47035   1.000
    O207    O    0.90902   0.59033   0.47593   1.000
loop_
    _geom_bond_atom_site_label_1
    _geom_bond_atom_site_label_2
    _geom_bond_distance
    _geom_bond_site_symmetry_2
    _ccdc_geom_bond_type
    N32    O33       1.54961      .   S
    Zr20   O33       2.55401      .   S
    N32    O34       1.27076      .   S
    Zr18   O34       2.12630      .   S
    N32    O35       1.18560      .   S
    Zr12   O35       2.01079      .   S
    N32    O36       1.27688      .   S
    Zr12   O36       1.97484      .   S
    N32    O37       1.61415      .   S
    Zr8    O37       2.56407      .   S
    N38    O39       2.30507      .   S
    Zr0    O39       3.27098  1_554   S
    N38    O40       2.29915      .   S
    Zr8    O40       3.25554      .   S
    N38    O41       2.32687      .   S
    Zr4    O41       3.32994  1_554   S
    N38    O42       2.32972      .   S
    Zr12   O42       3.33872      .   S
    N43    O44       1.61417      .   S
    Zr19   O44       2.56406      .   S
    N43    O45       1.27686      .   S
    Zr23   O45       1.97497      .   S
    N43    O46       1.55111      .   S
    Zr13   O46       2.55711      .   S
    N43    O47       1.27024      .   S
    Zr11   O47       2.12540      .   S
    N43    O48       1.18557      .   S
    Zr23   O48       2.01086      .   S
    N49    O50       1.55111      .   S
    Zr15   O50       2.55711  1_655   S
    N49    O51       1.61417      .   S
    Zr17   O51       2.56407      .   S
    N49    O52       1.27686      .   S
    Zr21   O52       1.97497      .   S
    N49    O53       1.27024      .   S
    Zr9    O53       2.12540      .   S
    N49    O54       1.18557      .   S
    Zr21   O54       2.01086      .   S
    N55    O56       1.55115      .   S
    Zr12   O56       2.55710      .   S
    N55    O57       1.61406      .   S
    Zr18   O57       2.56373      .   S
    N55    O58       1.27908      .   S
    Zr22   O58       1.97896      .   S
    N55    O59       1.27028      .   S
    Zr10   O59       2.12548      .   S
    N55    O60       1.18753      .   S
    Zr22   O60       2.01546      .   S
    N61    O62       2.30582      .   S
    Zr17   O62       3.27203      .   S
    N61    O63       2.30052      .   S
    Zr24   O63       3.25795      .   S
    N61    O64       2.32947      .   S
    Zr28   O64       3.33845      .   S
    N61    O65       2.32640      .   S
    Zr21   O65       3.32959      .   S
    N66    O67       2.30587      .   S
    Zr18   O67       3.27209      .   S
    N66    O68       2.30019  1_545   S
    Zr27   O68       3.25781      .   S
    N66    O69       2.33053      .   S
    Zr22   O69       3.34173      .   S
    N66    O70       2.32951  1_545   S
    Zr31   O70       3.33823      .   S
    N71    O72       2.30584      .   S
    Zr19   O72       3.27205      .   S
    N71    O73       2.30050      .   S
    Zr26   O73       3.25792      .   S
    N71    O74       2.32642      .   S
    Zr23   O74       3.32960      .   S
    N71    O75       2.32945      .   S
    Zr30   O75       3.33843      .   S
    N76    O77       2.30513      .   S
    Zr1    O77       3.27105  1_554   S
    N76    O78       2.29910      .   S
    Zr9    O78       3.25549      .   S
    N76    O79       2.32693      .   S
    Zr5    O79       3.33004  1_554   S
    N76    O80       2.32966      .   S
    Zr13   O80       3.33864      .   S
    N81    O82       2.32682      .   S
    Zr14   O82       3.32986      .   S
    N81    O83       2.30525      .   S
    Zr10   O83       3.27120      .   S
    N81    O84       2.29922      .   S
    Zr2    O84       3.25563      .   S
    N81    O85       2.32981      .   S
    Zr6    O85       3.33872      .   S
    N86    O87       2.30537      .   S
    Zr2    O87       3.27128  1_554   S
    N86    O88       2.30069      .   S
    Zr10   O88       3.25343      .   S
    N86    O89       2.32717      .   S
    Zr6    O89       3.33024  1_554   S
    N86    O90       2.32978      .   S
    Zr14   O90       3.33807      .   S
    N91    O92       2.32683      .   S
    Zr13   O92       3.32987      .   S
    N91    O93       2.30527      .   S
    Zr9    O93       3.27121      .   S
    N91    O94       2.29920      .   S
    Zr1    O94       3.25563      .   S
    N91    O95       2.32980      .   S
    Zr5    O95       3.33872      .   S
    N96    O97       2.32525  1_565   S
    Zr22   O97       3.32596      .   S
    N96    O98       2.29904  1_565   S
    Zr18   O98       3.25513      .   S
    N96    O99       2.32624      .   S
    Zr31   O99       3.32885  1_556   S
    N96    O100      2.30512      .   S
    Zr27   O100      3.27090  1_556   S
    N101   O102      2.32943      .   S
    Zr23   O102      3.33813      .   S
    N101   O103      2.29910      .   S
    Zr19   O103      3.25527      .   S
    N101   O104      2.30504      .   S
    Zr26   O104      3.27083  1_556   S
    N101   O105      2.32663      .   S
    Zr30   O105      3.32846  1_556   S
    N106   O107      1.61400      .   S
    Zr24   O107      2.56379  1_556   S
    N106   O108      1.27652      .   S
    Zr28   O108      1.97484  1_556   S
    N106   O109      1.55115      .   S
    Zr4    O109      2.55699      .   S
    N106   O110      1.26985      .   S
    Zr2    O110      2.12474  1_655   S
    N106   O111      1.18535      .   S
    Zr28   O111      2.01054  1_556   S
    N112   O113      1.61365      .   S
    Zr25   O113      2.56331  1_556   S
    N112   O114      1.27614      .   S
    Zr29   O114      1.97437  1_556   S
    N112   O115      1.55116      .   S
    Zr5    O115      2.55691      .   S
    N112   O116      1.26991      .   S
    Zr3    O116      2.12490  1_655   S
    N112   O117      1.18503      .   S
    Zr29   O117      2.00999  1_556   S
    N118   O119      1.61400      .   S
    Zr26   O119      2.56378  1_556   S
    N118   O120      1.27652      .   S
    Zr30   O120      1.97484  1_556   S
    N118   O121      1.55115      .   S
    Zr6    O121      2.55698      .   S
    N118   O122      1.26985      .   S
    Zr0    O122      2.12474      .   S
    N118   O123      1.18535      .   S
    Zr30   O123      2.01053  1_556   S
    N124   O125      1.61365      .   S
    Zr27   O125      2.56331  1_556   S
    N124   O126      1.27614      .   S
    Zr31   O126      1.97436  1_556   S
    N124   O127      1.55116      .   S
    Zr7    O127      2.55691      .   S
    N124   O128      1.26991      .   S
    Zr1    O128      2.12490      .   S
    N124   O129      1.18503      .   S
    Zr31   O129      2.00999  1_556   S
    N130   O131      1.18339      .   S
    Zr7    O131      2.00663  1_554   S
    N130   O132      1.26857      .   S
    Zr27   O132      2.12136      .   S
    N130   O133      1.55150      .   S
    Zr29   O133      2.55752  1_455   S
    N130   O134      1.61344      .   S
    Zr3    O134      2.56408  1_554   S
    N130   O135      1.27377      .   S
    Zr7    O135      1.97096  1_554   S
    N136   O137      2.32525  1_565   S
    Zr20   O137      3.32596      .   S
    N136   O138      2.30512      .   S
    Zr25   O138      3.27090  1_556   S
    N136   O139      2.29904  1_565   S
    Zr16   O139      3.25513      .   S
    N136   O140      2.32624      .   S
    Zr29   O140      3.32886  1_556   S
    N141   O142      2.30020  1_545   S
    Zr25   O142      3.25781      .   S
    N141   O143      2.32951  1_545   S
    Zr29   O143      3.33823      .   S
    N141   O144      2.33052      .   S
    Zr20   O144      3.34173      .   S
    N141   O145      2.30587      .   S
    Zr16   O145      3.27208      .   S
    N146   O147      1.18347      .   S
    Zr4    O147      2.00668  1_554   S
    N146   O148      1.26860      .   S
    Zr24   O148      2.12136      .   S
    N146   O149      1.61349      .   S
    Zr0    O149      2.56413  1_554   S
    N146   O150      1.27383      .   S
    Zr4    O150      1.97104  1_554   S
    N146   O151      1.55148      .   S
    Zr30   O151      2.55748      .   S
    N152   O153      1.55154      .   S
    Zr31   O153      2.55756      .   S
    N152   O154      1.18346      .   S
    Zr5    O154      2.00669  1_554   S
    N152   O155      1.26862      .   S
    Zr25   O155      2.12139      .   S
    N152   O156      1.61350      .   S
    Zr1    O156      2.56412  1_554   S
    N152   O157      1.27385      .   S
    Zr5    O157      1.97101  1_554   S
    N158   O159      1.18348      .   S
    Zr6    O159      2.00669  1_554   S
    N158   O160      1.26860      .   S
    Zr26   O160      2.12137      .   S
    N158   O161      1.55148      .   S
    Zr28   O161      2.55748  1_455   S
    N158   O162      1.61350      .   S
    Zr2    O162      2.56413  1_554   S
    N158   O163      1.27384      .   S
    Zr6    O163      1.97105  1_554   S
    N164   O165      2.32681      .   S
    Zr12   O165      3.32986      .   S
    N164   O166      2.30525      .   S
    Zr8    O166      3.27120      .   S
    N164   O167      2.29921      .   S
    Zr0    O167      3.25563      .   S
    N164   O168      2.32981      .   S
    Zr4    O168      3.33872      .   S
    N169   O170      2.29905      .   S
    Zr17   O170      3.25521      .   S
    N169   O171      2.32938      .   S
    Zr21   O171      3.33808      .   S
    N169   O172      2.30509      .   S
    Zr24   O172      3.27088  1_556   S
    N169   O173      2.32627      .   S
    Zr28   O173      3.32891  1_556   S
    N174   O175      2.32683      .   S
    Zr15   O175      3.32987      .   S
    N174   O176      2.30527      .   S
    Zr11   O176      3.27122      .   S
    N174   O177      2.29920      .   S
    Zr3    O177      3.25563      .   S
    N174   O178      2.32979      .   S
    Zr7    O178      3.33872      .   S
    N179   O180      2.30513      .   S
    Zr3    O180      3.27105  1_554   S
    N179   O181      2.29910      .   S
    Zr11   O181      3.25549      .   S
    N179   O182      2.32692      .   S
    Zr7    O182      3.33005  1_554   S
    N179   O183      2.32966      .   S
    Zr15   O183      3.33864      .   S
    N184   O185      1.55115      .   S
    Zr14   O185      2.55710  1_655   S
    N184   O186      1.27028      .   S
    Zr8    O186      2.12548      .   S
    N184   O187      1.18753      .   S
    Zr20   O187      2.01546      .   S
    N184   O188      1.61406      .   S
    Zr16   O188      2.56372      .   S
    N184   O189      1.27908      .   S
    Zr20   O189      1.97896      .   S
    N190   O191      1.27693      .   S
    Zr13   O191      1.97490      .   S
    N190   O192      1.61417      .   S
    Zr9    O192      2.56410      .   S
    N190   O193      1.55060      .   S
    Zr21   O193      2.55642      .   S
    N190   O194      1.27079      .   S
    Zr19   O194      2.12632      .   S
    N190   O195      1.18565      .   S
    Zr13   O195      2.01085      .   S
    N196   O197      1.27688      .   S
    Zr14   O197      1.97484      .   S
    N196   O198      1.61415      .   S
    Zr10   O198      2.56407      .   S
    N196   O199      1.54961      .   S
    Zr22   O199      2.55401      .   S
    N196   O200      1.27075      .   S
    Zr16   O200      2.12629  1_455   S
    N196   O201      1.18559      .   S
    Zr14   O201      2.01079      .   S
    N202   O203      1.61417      .   S
    Zr11   O203      2.56410      .   S
    N202   O204      1.27693      .   S
    Zr15   O204      1.97490      .   S
    N202   O205      1.55060      .   S
    Zr23   O205      2.55642      .   S
    N202   O206      1.27078      .   S
    Zr17   O206      2.12632  1_455   S
    N202   O207      1.18565      .   S
    Zr15   O207      2.01084      .   S
