# CIF file generated by openbabel 2.4.90, see http://openbabel.sf.net
data_I
_chemical_name_common ''
_cell_length_a 20.75
_cell_length_b 25.128
_cell_length_c 20.218
_cell_angle_alpha 90.024
_cell_angle_beta 89.988
_cell_angle_gamma 90.036
_space_group_name_H-M_alt 'P 1'
_space_group_name_Hall 'P 1'
loop_
    _symmetry_equiv_pos_as_xyz
    x,y,z
loop_
    _atom_site_label
    _atom_site_type_symbol
    _atom_site_fract_x
    _atom_site_fract_y
    _atom_site_fract_z
    _atom_site_occupancy
    N0      N    0.37624   0.05840   0.44883   1.000
    N1      N    0.37376   0.25066   0.76085   1.000
    N2      N    0.62635   0.69164   0.55114   1.000
    N3      N    0.12635   0.69164   0.55114   1.000
    N4      N    0.62636   0.19159   0.55118   1.000
    N5      N    0.12615   0.50045   0.73910   1.000
    N6      N    0.62614   0.00052   0.73914   1.000
    N7      N    0.62615   0.50045   0.73910   1.000
    N8      N    0.37378   0.75072   0.76081   1.000
    N9      N    0.87621   0.24944   0.26086   1.000
    N10     N    0.87376   0.25066   0.76081   1.000
    N11     N    0.37621   0.74944   0.26085   1.000
    N12     N    0.62372   0.99946   0.23916   1.000
    N13     N    0.62372   0.49946   0.23915   1.000
    N14     N    0.12360   0.30839   0.05106   1.000
    N15     N    0.12360   0.80847   0.05112   1.000
    N16     N    0.62360   0.30840   0.05106   1.000
    N17     N    0.62360   0.80847   0.05112   1.000
    N18     N    0.87352   0.94162   0.94953   1.000
    N19     N    0.12372   0.99946   0.23916   1.000
    N20     N    0.12614   0.00052   0.73914   1.000
    N21     N    0.37353   0.44162   0.94953   1.000
    N22     N    0.37352   0.94162   0.94951   1.000
    N23     N    0.87353   0.44162   0.94953   1.000
    N24     N    0.37621   0.24944   0.26086   1.000
    N25     N    0.12372   0.49946   0.23915   1.000
    N26     N    0.87621   0.74944   0.26085   1.000
    N27     N    0.87378   0.75072   0.76081   1.000
    N28     N    0.12636   0.19159   0.55118   1.000
    N29     N    0.37623   0.55840   0.44883   1.000
    N30     N    0.87624   0.05840   0.44882   1.000
    N31     N    0.87623   0.55840   0.44883   1.000
    Zr32    Zr   0.46629   0.30343   0.01119   1.000
    O33     O    0.51635   0.30832   0.02036   1.000
    O34     O    0.44034   0.28563   0.08388   1.000
    O35     O    0.43632   0.34636   0.99616   1.000
    O36     O    0.43946   0.28620   0.93819   1.000
    Zr37    Zr   0.96628   0.80344   0.01119   1.000
    O38     O    0.94034   0.78564   0.08388   1.000
    O39     O    0.93947   0.78623   0.93818   1.000
    O40     O    0.93631   0.84636   0.99615   1.000
    O41     O    0.01635   0.80835   0.02038   1.000
    Zr42    Zr   0.53365   0.05346   0.48881   1.000
    O43     O    0.55959   0.03565   0.41613   1.000
    O44     O    0.56042   0.03620   0.56182   1.000
    O45     O    0.56363   0.09637   0.50403   1.000
    O46     O    0.48357   0.05834   0.47958   1.000
    Zr47    Zr   0.06416   0.91182   0.98887   1.000
    O48     O    0.08242   0.93862   0.91570   1.000
    O49     O    0.09125   0.88195   0.00405   1.000
    O50     O    0.08142   0.93838   0.06219   1.000
    O51     O    0.07752   0.87608   0.00643   1.000
    O52     O    0.00498   0.92275   0.97766   1.000
    Zr53    Zr   0.71635   0.44654   0.98889   1.000
    O54     O    0.68637   0.40363   0.00405   1.000
    O55     O    0.68949   0.46383   0.06185   1.000
    O56     O    0.69040   0.46427   0.91613   1.000
    O57     O    0.76639   0.44172   0.98004   1.000
    Zr58    Zr   0.78372   0.19656   0.51119   1.000
    O59     O    0.81364   0.15364   0.49597   1.000
    O60     O    0.81052   0.21381   0.43819   1.000
    O61     O    0.73365   0.19167   0.52041   1.000
    O62     O    0.80965   0.21439   0.58382   1.000
    Zr63    Zr   0.71634   0.94656   0.98888   1.000
    O64     O    0.68636   0.90366   0.00406   1.000
    O65     O    0.76638   0.94173   0.98003   1.000
    O66     O    0.68949   0.96384   0.06185   1.000
    O67     O    0.69039   0.96431   0.91613   1.000
    Zr68    Zr   0.28372   0.69657   0.51119   1.000
    O69     O    0.31052   0.71382   0.43819   1.000
    O70     O    0.31364   0.65365   0.49597   1.000
    O71     O    0.23364   0.69168   0.52040   1.000
    O72     O    0.30966   0.71442   0.58387   1.000
    Zr73    Zr   0.78372   0.69657   0.51119   1.000
    O74     O    0.81052   0.71382   0.43819   1.000
    O75     O    0.81364   0.65365   0.49597   1.000
    O76     O    0.80966   0.71442   0.58387   1.000
    O77     O    0.73364   0.69168   0.52040   1.000
    Zr78    Zr   0.93583   0.66185   0.51111   1.000
    O79     O    0.92243   0.62609   0.49352   1.000
    O80     O    0.91855   0.68839   0.43780   1.000
    O81     O    0.90871   0.63195   0.49592   1.000
    O82     O    0.99499   0.67277   0.52251   1.000
    O83     O    0.91756   0.68869   0.58428   1.000
    Zr84    Zr   0.68581   0.08816   0.48800   1.000
    O85     O    0.74494   0.07725   0.47693   1.000
    O86     O    0.66753   0.06136   0.41516   1.000
    O87     O    0.66850   0.06160   0.56164   1.000
    O88     O    0.65873   0.11806   0.50352   1.000
    O89     O    0.67245   0.12392   0.50592   1.000
    Zr90    Zr   0.28372   0.19656   0.51119   1.000
    O91     O    0.23365   0.19167   0.52041   1.000
    O92     O    0.31052   0.21381   0.43819   1.000
    O93     O    0.30965   0.21439   0.58388   1.000
    O94     O    0.31364   0.15364   0.49597   1.000
    Zr95    Zr   0.81415   0.33825   0.01123   1.000
    O96     O    0.82752   0.37403   0.99400   1.000
    O97     O    0.83243   0.31141   0.08437   1.000
    O98     O    0.83143   0.31171   0.93787   1.000
    O99     O    0.75499   0.32731   0.02256   1.000
    O100    O    0.84123   0.36812   0.99618   1.000
    Zr101   Zr   0.81414   0.83826   0.01123   1.000
    O102    O    0.82751   0.87404   0.99400   1.000
    O103    O    0.83143   0.81173   0.93786   1.000
    O104    O    0.83242   0.81142   0.08437   1.000
    O105    O    0.75498   0.82733   0.02257   1.000
    O106    O    0.84122   0.86812   0.99618   1.000
    Zr107   Zr   0.31414   0.83826   0.01123   1.000
    O108    O    0.32751   0.87404   0.99399   1.000
    O109    O    0.33143   0.81173   0.93786   1.000
    O110    O    0.25498   0.82733   0.02257   1.000
    O111    O    0.34122   0.86812   0.99618   1.000
    O112    O    0.33242   0.81142   0.08437   1.000
    Zr113   Zr   0.68581   0.58817   0.48890   1.000
    O114    O    0.66850   0.56159   0.56220   1.000
    O115    O    0.66753   0.56137   0.41572   1.000
    O116    O    0.74494   0.57726   0.47750   1.000
    O117    O    0.67245   0.62394   0.50647   1.000
    O118    O    0.65872   0.61808   0.50408   1.000
    Zr119   Zr   0.31415   0.33825   0.01123   1.000
    O120    O    0.32752   0.37403   0.99400   1.000
    O121    O    0.33243   0.31141   0.08437   1.000
    O122    O    0.34123   0.36812   0.99618   1.000
    O123    O    0.25499   0.32731   0.02256   1.000
    O124    O    0.33143   0.31171   0.93787   1.000
    Zr125   Zr   0.53365   0.55346   0.48881   1.000
    O126    O    0.48356   0.55834   0.47958   1.000
    O127    O    0.55959   0.53565   0.41612   1.000
    O128    O    0.56362   0.59638   0.50402   1.000
    O129    O    0.56043   0.53619   0.56181   1.000
    Zr130   Zr   0.06417   0.41181   0.98887   1.000
    O131    O    0.09126   0.38192   0.00404   1.000
    O132    O    0.07753   0.37605   0.00641   1.000
    O133    O    0.08143   0.43837   0.06219   1.000
    O134    O    0.00499   0.42274   0.97767   1.000
    O135    O    0.08243   0.43859   0.91568   1.000
    Zr136   Zr   0.18581   0.58817   0.48890   1.000
    O137    O    0.24494   0.57726   0.47750   1.000
    O138    O    0.16753   0.56137   0.41572   1.000
    O139    O    0.15872   0.61808   0.50408   1.000
    O140    O    0.16850   0.56159   0.56220   1.000
    O141    O    0.17245   0.62394   0.50647   1.000
    Zr142   Zr   0.96629   0.30343   0.01119   1.000
    O143    O    0.01635   0.30832   0.02036   1.000
    O144    O    0.93946   0.28621   0.93818   1.000
    O145    O    0.93632   0.34636   0.99616   1.000
    O146    O    0.94034   0.28563   0.08388   1.000
    Zr147   Zr   0.18581   0.08816   0.48800   1.000
    O148    O    0.15873   0.11806   0.50352   1.000
    O149    O    0.17245   0.12392   0.50592   1.000
    O150    O    0.16753   0.06136   0.41516   1.000
    O151    O    0.16850   0.06160   0.56164   1.000
    O152    O    0.24494   0.07725   0.47693   1.000
    Zr153   Zr   0.46628   0.80344   0.01119   1.000
    O154    O    0.51635   0.80835   0.02038   1.000
    O155    O    0.44034   0.78564   0.08388   1.000
    O156    O    0.43631   0.84636   0.99615   1.000
    O157    O    0.43947   0.78623   0.93818   1.000
    Zr158   Zr   0.56417   0.41181   0.98887   1.000
    O159    O    0.57753   0.37605   0.00641   1.000
    O160    O    0.50499   0.42274   0.97767   1.000
    O161    O    0.59126   0.38192   0.00404   1.000
    O162    O    0.58143   0.43837   0.06218   1.000
    O163    O    0.58243   0.43859   0.91568   1.000
    Zr164   Zr   0.56416   0.91182   0.98887   1.000
    O165    O    0.58242   0.93862   0.91570   1.000
    O166    O    0.50498   0.92275   0.97766   1.000
    O167    O    0.59125   0.88195   0.00405   1.000
    O168    O    0.58143   0.93838   0.06219   1.000
    O169    O    0.57753   0.87608   0.00643   1.000
    Zr170   Zr   0.21635   0.44654   0.98889   1.000
    O171    O    0.18637   0.40363   0.00405   1.000
    O172    O    0.26639   0.44172   0.98004   1.000
    O173    O    0.18949   0.46383   0.06185   1.000
    O174    O    0.19040   0.46427   0.91613   1.000
    Zr175   Zr   0.03365   0.05346   0.48881   1.000
    O176    O    0.98357   0.05834   0.47958   1.000
    O177    O    0.06042   0.03620   0.56182   1.000
    O178    O    0.06363   0.09637   0.50403   1.000
    O179    O    0.05959   0.03565   0.41613   1.000
    Zr180   Zr   0.43584   0.16184   0.51111   1.000
    O181    O    0.41855   0.18839   0.43780   1.000
    O182    O    0.41755   0.18867   0.58429   1.000
    O183    O    0.49499   0.17275   0.52251   1.000
    O184    O    0.42243   0.12608   0.49352   1.000
    O185    O    0.40871   0.13194   0.49592   1.000
    Zr186   Zr   0.03365   0.55346   0.48881   1.000
    O187    O    0.06362   0.59638   0.50402   1.000
    O188    O    0.98356   0.55835   0.47958   1.000
    O189    O    0.05959   0.53565   0.41612   1.000
    O190    O    0.06043   0.53619   0.56181   1.000
    Zr191   Zr   0.93584   0.16184   0.51111   1.000
    O192    O    0.91755   0.18867   0.58427   1.000
    O193    O    0.90871   0.13194   0.49592   1.000
    O194    O    0.92243   0.12608   0.49352   1.000
    O195    O    0.99499   0.17275   0.52251   1.000
    O196    O    0.91855   0.18839   0.43780   1.000
    Zr197   Zr   0.21634   0.94656   0.98888   1.000
    O198    O    0.18636   0.90366   0.00406   1.000
    O199    O    0.26638   0.94173   0.98003   1.000
    O200    O    0.18949   0.96384   0.06185   1.000
    O201    O    0.19038   0.96432   0.91613   1.000
    Zr202   Zr   0.43583   0.66185   0.51111   1.000
    O203    O    0.41855   0.68839   0.43780   1.000
    O204    O    0.40871   0.63195   0.49592   1.000
    O205    O    0.41756   0.68869   0.58428   1.000
    O206    O    0.42243   0.62609   0.49352   1.000
    O207    O    0.49499   0.67277   0.52251   1.000
loop_
    _geom_bond_atom_site_label_1
    _geom_bond_atom_site_label_2
    _geom_bond_distance
    _geom_bond_site_symmetry_2
    _ccdc_geom_bond_type
    Zr32   O33       1.06237      .   S
    N16    O33       2.31055      .   S
    Zr32   O34       1.62781      .   S
    N24    O34       3.92425      .   S
    Zr32   O35       1.28207  1_554   S
    N21    O35       2.88488      .   S
    Zr32   O36       1.63549  1_554   S
    N1     O36       3.93841      .   S
    Zr37   O38       1.62782      .   S
    N26    O38       3.92423      .   S
    Zr37   O39       1.63553  1_554   S
    N27    O39       3.93851      .   S
    Zr37   O40       1.28204  1_554   S
    N18    O40       2.88479      .   S
    Zr37   O41       1.06245  1_655   S
    N15    O41       2.31070      .   S
    Zr42   O43       1.62757      .   S
    N12    O43       3.92380  1_565   S
    Zr42   O44       1.63604      .   S
    N6     O44       3.93980      .   S
    Zr42   O45       1.28186      .   S
    N4     O45       2.88503      .   S
    Zr42   O46       1.06315      .   S
    N0     O46       2.31233      .   S
    Zr47   O48       1.66912      .   S
    N20    O48       3.99827  1_545   S
    Zr47   O49       0.98718  1_556   S
    N15    O49       2.18358      .   S
    Zr47   O50       1.66443  1_556   S
    N19    O50       3.99021      .   S
    Zr47   O51       1.00500  1_556   S
    N15    O51       2.14951      .   S
    Zr47   O52       1.27876      .   S
    N18    O52       2.82700  1_655   S
    Zr53   O54       1.28189  1_556   S
    N16    O54       2.88503      .   S
    Zr53   O55       1.63542  1_556   S
    N13    O55       3.93828      .   S
    Zr53   O56       1.62896      .   S
    N7     O56       3.92682      .   S
    Zr53   O57       1.06068      .   S
    N23    O57       2.30709      .   S
    Zr58   O59       1.28204      .   S
    N30    O59       2.88531      .   S
    Zr58   O60       1.63560      .   S
    N9     O60       3.93872      .   S
    Zr58   O61       1.06274      .   S
    N4     O61       2.31141      .   S
    Zr58   O62       1.62671      .   S
    N10    O62       3.92460      .   S
    Zr63   O64       1.28165  1_556   S
    N17    O64       2.88442      .   S
    Zr63   O65       1.06068      .   S
    N18    O65       2.30705      .   S
    Zr63   O66       1.63545  1_556   S
    N12    O66       3.93840      .   S
    Zr63   O67       1.62891      .   S
    N6     O67       3.92642  1_545   S
    Zr68   O69       1.63561      .   S
    N11    O69       3.93874      .   S
    Zr68   O70       1.28205      .   S
    N29    O70       2.88536      .   S
    Zr68   O71       1.06270      .   S
    N3     O71       2.31133      .   S
    Zr68   O72       1.62774      .   S
    N8     O72       3.92405      .   S
    Zr73   O74       1.63561      .   S
    N26    O74       3.93874      .   S
    Zr73   O75       1.28205      .   S
    N31    O75       2.88535      .   S
    Zr73   O76       1.62774      .   S
    N27    O76       3.92405      .   S
    Zr73   O77       1.06270      .   S
    N2     O77       2.31133      .   S
    Zr78   O79       1.00542      .   S
    N31    O79       2.15063      .   S
    Zr78   O80       1.66493      .   S
    N26    O80       3.99130      .   S
    Zr78   O81       0.98745      .   S
    N31    O81       2.18481      .   S
    Zr78   O82       1.27856      .   S
    N3     O82       2.82638  1_455   S
    Zr78   O83       1.66932      .   S
    N27    O83       3.99863      .   S
    Zr84   O85       1.27700      .   S
    N30    O85       2.82324      .   S
    Zr84   O86       1.66298      .   S
    N12    O86       3.98785  1_565   S
    Zr84   O87       1.67086      .   S
    N6     O87       4.00095      .   S
    Zr84   O88       0.98948      .   S
    N4     O88       2.18946      .   S
    Zr84   O89       1.00773      .   S
    N4     O89       2.15508      .   S
    Zr90   O91       1.06274      .   S
    N28    O91       2.31141      .   S
    Zr90   O92       1.63560      .   S
    N24    O92       3.93872      .   S
    Zr90   O93       1.62777      .   S
    N1     O93       3.92413      .   S
    Zr90   O94       1.28203      .   S
    N0     O94       2.88531      .   S
    Zr95   O96       1.00335  1_554   S
    N23    O96       2.14560      .   S
    Zr95   O97       1.66936      .   S
    N9     O97       3.99880      .   S
    Zr95   O98       1.66512  1_554   S
    N10    O98       3.99183      .   S
    Zr95   O99       1.27849      .   S
    N16    O99       2.82633      .   S
    Zr95   O100      0.98553  1_554   S
    N23    O100      2.17946      .   S
    Zr101  O102      1.00332  1_554   S
    N18    O102      2.14547      .   S
    Zr101  O103      1.66502  1_554   S
    N27    O103      3.99149      .   S
    Zr101  O104      1.66936      .   S
    N26    O104      3.99879      .   S
    Zr101  O105      1.27845      .   S
    N17    O105      2.82629      .   S
    Zr101  O106      0.98548  1_554   S
    N18    O106      2.17935      .   S
    Zr107  O108      1.00334  1_554   S
    N22    O108      2.14557      .   S
    Zr107  O109      1.66502  1_554   S
    N8     O109      3.99149      .   S
    Zr107  O110      1.27845      .   S
    N15    O110      2.82629      .   S
    Zr107  O111      0.98551  1_554   S
    N22    O111      2.17945      .   S
    Zr107  O112      1.66936      .   S
    N11    O112      3.99879      .   S
    Zr113  O114      1.66480      .   S
    N7     O114      3.99077      .   S
    Zr113  O115      1.66907      .   S
    N13    O115      3.99814      .   S
    Zr113  O116      1.27821      .   S
    N31    O116      2.82552      .   S
    Zr113  O117      1.00543      .   S
    N2     O117      2.15058      .   S
    Zr113  O118      0.98749      .   S
    N2     O118      2.18476      .   S
    Zr119  O120      1.00334  1_554   S
    N21    O120      2.14559      .   S
    Zr119  O121      1.66936      .   S
    N24    O121      3.99880      .   S
    Zr119  O122      0.98552  1_554   S
    N21    O122      2.17945      .   S
    Zr119  O123      1.27850      .   S
    N14    O123      2.82634      .   S
    Zr119  O124      1.66497  1_554   S
    N1     O124      3.99139      .   S
    Zr125  O126      1.06316      .   S
    N29    O126      2.31238      .   S
    Zr125  O127      1.62763      .   S
    N13    O127      3.92393      .   S
    Zr125  O128      1.28203      .   S
    N2     O128      2.88535      .   S
    Zr125  O129      1.63602      .   S
    N7     O129      3.93976      .   S
    Zr130  O131      0.98742  1_556   S
    N14    O131      2.18425      .   S
    Zr130  O132      1.00527  1_556   S
    N14    O132      2.15015      .   S
    Zr130  O133      1.66446  1_556   S
    N25    O133      3.99026      .   S
    Zr130  O134      1.27874      .   S
    N23    O134      2.82696  1_655   S
    Zr130  O135      1.66922      .   S
    N5     O135      3.99833      .   S
    Zr136  O137      1.27821      .   S
    N29    O137      2.82551      .   S
    Zr136  O138      1.66904      .   S
    N25    O138      3.99807      .   S
    Zr136  O139      0.98749      .   S
    N3     O139      2.18476      .   S
    Zr136  O140      1.66479      .   S
    N5     O140      3.99074      .   S
    Zr136  O141      1.00543      .   S
    N3     O141      2.15059      .   S
    Zr142  O143      1.06237  1_655   S
    N14    O143      2.31055      .   S
    Zr142  O144      1.63564  1_554   S
    N10    O144      3.93886      .   S
    Zr142  O145      1.28207  1_554   S
    N23    O145      2.88488      .   S
    Zr142  O146      1.62781      .   S
    N9     O146      3.92425      .   S
    Zr147  O148      0.98948      .   S
    N28    O148      2.18946      .   S
    Zr147  O149      1.00773      .   S
    N28    O149      2.15507      .   S
    Zr147  O150      1.66298      .   S
    N19    O150      3.98784  1_565   S
    Zr147  O151      1.67086      .   S
    N20    O151      4.00095      .   S
    Zr147  O152      1.27701      .   S
    N0     O152      2.82324      .   S
    Zr153  O154      1.06245      .   S
    N17    O154      2.31070      .   S
    Zr153  O155      1.62782      .   S
    N11    O155      3.92424      .   S
    Zr153  O156      1.28206  1_554   S
    N22    O156      2.88487      .   S
    Zr153  O157      1.63553  1_554   S
    N8     O157      3.93851      .   S
    Zr158  O159      1.00527  1_556   S
    N16    O159      2.15015      .   S
    Zr158  O160      1.27874      .   S
    N21    O160      2.82696      .   S
    Zr158  O161      0.98742  1_556   S
    N16    O161      2.18425      .   S
    Zr158  O162      1.66423  1_556   S
    N13    O162      3.99039      .   S
    Zr158  O163      1.66922      .   S
    N7     O163      3.99831      .   S
    Zr164  O165      1.66912      .   S
    N6     O165      3.99826  1_545   S
    Zr164  O166      1.27878      .   S
    N22    O166      2.82706      .   S
    Zr164  O167      0.98718  1_556   S
    N17    O167      2.18358      .   S
    Zr164  O168      1.66443  1_556   S
    N12    O168      3.99020      .   S
    Zr164  O169      1.00500  1_556   S
    N17    O169      2.14951      .   S
    Zr170  O171      1.28189  1_556   S
    N14    O171      2.88503      .   S
    Zr170  O172      1.06068      .   S
    N21    O172      2.30708      .   S
    Zr170  O173      1.63544  1_556   S
    N25    O173      3.93836      .   S
    Zr170  O174      1.62897      .   S
    N5     O174      3.92685      .   S
    Zr175  O176      1.06315  1_455   S
    N30    O176      2.31233      .   S
    Zr175  O177      1.63604      .   S
    N20    O177      3.93980      .   S
    Zr175  O178      1.28186      .   S
    N28    O178      2.88502      .   S
    Zr175  O179      1.62757      .   S
    N19    O179      3.92380  1_565   S
    Zr180  O181      1.66493      .   S
    N24    O181      3.99128      .   S
    Zr180  O182      1.66936      .   S
    N1     O182      3.99872      .   S
    Zr180  O183      1.27855      .   S
    N4     O183      2.82641      .   S
    Zr180  O184      1.00540      .   S
    N0     O184      2.15054      .   S
    Zr180  O185      0.98742      .   S
    N0     O185      2.18473      .   S
    Zr186  O187      1.28203      .   S
    N3     O187      2.88535      .   S
    Zr186  O188      1.06316  1_455   S
    N31    O188      2.31237      .   S
    Zr186  O189      1.62761      .   S
    N25    O189      3.92385      .   S
    Zr186  O190      1.63601      .   S
    N5     O190      3.93973      .   S
    Zr191  O192      1.66903      .   S
    N10    O192      3.99846      .   S
    Zr191  O193      0.98742      .   S
    N30    O193      2.18473      .   S
    Zr191  O194      1.00540      .   S
    N30    O194      2.15054      .   S
    Zr191  O195      1.27855      .   S
    N28    O195      2.82641  1_455   S
    Zr191  O196      1.66493      .   S
    N9     O196      3.99128      .   S
    Zr197  O198      1.28165  1_556   S
    N15    O198      2.88442      .   S
    Zr197  O199      1.06069      .   S
    N22    O199      2.30711      .   S
    Zr197  O200      1.63545  1_556   S
    N19    O200      3.93840      .   S
    Zr197  O201      1.62891      .   S
    N20    O201      3.92643  1_545   S
    Zr202  O203      1.66493      .   S
    N11    O203      3.99130      .   S
    Zr202  O204      0.98745      .   S
    N29    O204      2.18481      .   S
    Zr202  O205      1.66932      .   S
    N8     O205      3.99863      .   S
    Zr202  O206      1.00542      .   S
    N29    O206      2.15063      .   S
    Zr202  O207      1.27856      .   S
    N2     O207      2.82638      .   S
