# CIF file generated by openbabel 2.4.90, see http://openbabel.sf.net
data_I
_chemical_name_common ''
_cell_length_a 13.144
_cell_length_b 13.126
_cell_length_c 13.66
_cell_angle_alpha 89.933
_cell_angle_beta 89.933
_cell_angle_gamma 89.989
_space_group_name_H-M_alt 'P 1'
_space_group_name_Hall 'P 1'
loop_
    _symmetry_equiv_pos_as_xyz
    x,y,z
loop_
    _atom_site_label
    _atom_site_type_symbol
    _atom_site_fract_x
    _atom_site_fract_y
    _atom_site_fract_z
    _atom_site_occupancy
    H0      H    0.08281   0.31129   0.79432   1.000
    H1      H    0.08619   0.35677   0.67149   1.000
    H2      H    0.15908   0.42137   0.76546   1.000
    H3      H    0.04097   0.79386   0.97700   1.000
    H4      H    0.11786   0.85597   0.06829   1.000
    H5      H    0.00581   0.78965   0.10582   1.000
    H6      H    0.41724   0.18854   0.79284   1.000
    H7      H    0.41565   0.14254   0.67025   1.000
    H8      H    0.34235   0.07761   0.76399   1.000
    H9      H    0.45980   0.70616   0.97670   1.000
    H10     H    0.38294   0.64370   0.06805   1.000
    H11     H    0.49440   0.71090   0.10544   1.000
    H12     H    0.68848   0.58312   0.29420   1.000
    H13     H    0.64313   0.58636   0.17143   1.000
    H14     H    0.57817   0.65896   0.26554   1.000
    H15     H    0.20605   0.54019   0.47729   1.000
    H16     H    0.14390   0.61701   0.56871   1.000
    H17     H    0.21068   0.50504   0.60596   1.000
    H18     H    0.81033   0.91682   0.29468   1.000
    H19     H    0.85569   0.91383   0.17183   1.000
    H20     H    0.92043   0.84072   0.26572   1.000
    H21     H    0.29292   0.95892   0.47500   1.000
    H22     H    0.35587   0.88239   0.56614   1.000
    H23     H    0.28952   0.99458   0.60350   1.000
    H24     H    0.91717   0.68873   0.20566   1.000
    H25     H    0.91379   0.64326   0.32848   1.000
    H26     H    0.84086   0.57868   0.23452   1.000
    H27     H    0.95900   0.20615   0.02289   1.000
    H28     H    0.88215   0.14402   0.93168   1.000
    H29     H    0.99418   0.21037   0.89416   1.000
    H30     H    0.58279   0.81138   0.20714   1.000
    H31     H    0.58434   0.85739   0.32972   1.000
    H32     H    0.65767   0.92232   0.23600   1.000
    H33     H    0.54020   0.29371   0.02329   1.000
    H34     H    0.61704   0.35620   0.93195   1.000
    H35     H    0.50559   0.28900   0.89455   1.000
    H36     H    0.31149   0.41681   0.70574   1.000
    H37     H    0.35684   0.41357   0.82850   1.000
    H38     H    0.42182   0.34099   0.73440   1.000
    H39     H    0.79394   0.45980   0.52262   1.000
    H40     H    0.85606   0.38296   0.43121   1.000
    H41     H    0.78929   0.49493   0.39395   1.000
    H42     H    0.18967   0.08318   0.70527   1.000
    H43     H    0.14433   0.08618   0.82813   1.000
    H44     H    0.07958   0.15928   0.73423   1.000
    H45     H    0.70709   0.04104   0.52499   1.000
    H46     H    0.64412   0.11758   0.43380   1.000
    H47     H    0.71047   0.00539   0.39648   1.000
    C48     C    0.12065   0.62050   0.86075   1.000
    C49     C    0.05643   0.55812   0.93210   1.000
    C50     C    0.99137   0.48048   0.89843   1.000
    C51     C    0.06409   0.57833   0.03323   1.000
    C52     C    0.08923   0.37951   0.74868   1.000
    C53     C    0.06822   0.79077   0.05283   1.000
    C54     C    0.38060   0.88009   0.86016   1.000
    C55     C    0.44414   0.94219   0.93183   1.000
    C56     C    0.50931   0.01995   0.89847   1.000
    C57     C    0.43562   0.92151   0.03287   1.000
    C58     C    0.41198   0.12009   0.74750   1.000
    C59     C    0.43219   0.70920   0.05238   1.000
    C60     C    0.37898   0.61928   0.36046   1.000
    C61     C    0.44161   0.55575   0.43198   1.000
    C62     C    0.51963   0.49102   0.39845   1.000
    C63     C    0.42134   0.56395   0.53307   1.000
    C64     C    0.62036   0.58923   0.24866   1.000
    C65     C    0.20917   0.56754   0.55298   1.000
    C66     C    0.11928   0.87909   0.36030   1.000
    C67     C    0.05733   0.94326   0.43193   1.000
    C68     C    0.97973   0.00852   0.39854   1.000
    C69     C    0.07836   0.93565   0.53290   1.000
    C70     C    0.87845   0.91063   0.24900   1.000
    C71     C    0.29049   0.93187   0.55087   1.000
    C72     C    0.87930   0.37948   0.13922   1.000
    C73     C    0.94347   0.44191   0.06786   1.000
    C74     C    0.00854   0.51952   0.10154   1.000
    C75     C    0.93583   0.42165   0.96673   1.000
    C76     C    0.91073   0.62052   0.25100   1.000
    C77     C    0.93176   0.20924   0.94715   1.000
    C78     C    0.61940   0.11985   0.13978   1.000
    C79     C    0.55589   0.05770   0.06810   1.000
    C80     C    0.49072   0.97994   0.10150   1.000
    C81     C    0.56440   0.07842   0.96709   1.000
    C82     C    0.58803   0.87984   0.25242   1.000
    C83     C    0.56780   0.29068   0.94761   1.000
    C84     C    0.62101   0.38073   0.63951   1.000
    C85     C    0.55835   0.44422   0.56797   1.000
    C86     C    0.48034   0.50897   0.60151   1.000
    C87     C    0.57864   0.43604   0.46688   1.000
    C88     C    0.37961   0.41071   0.75129   1.000
    C89     C    0.79079   0.43244   0.44694   1.000
    C90     C    0.88072   0.12091   0.63958   1.000
    C91     C    0.94267   0.05673   0.56804   1.000
    C92     C    0.02028   0.99147   0.60144   1.000
    C93     C    0.92163   0.06434   0.46708   1.000
    C94     C    0.12156   0.08937   0.75095   1.000
    C95     C    0.70951   0.06810   0.44912   1.000
    S96     S    0.98140   0.46353   0.76886   1.000
    S97     S    0.14891   0.67901   0.06658   1.000
    S98     S    0.52040   0.03715   0.76896   1.000
    S99     S    0.35079   0.82050   0.06560   1.000
    S100    S    0.53692   0.48087   0.26890   1.000
    S101    S    0.32050   0.64870   0.56626   1.000
    S102    S    0.96214   0.01871   0.26904   1.000
    S103    S    0.17923   0.85081   0.56580   1.000
    S104    S    0.01853   0.53646   0.23111   1.000
    S105    S    0.85102   0.32096   0.93338   1.000
    S106    S    0.47960   0.96277   0.23101   1.000
    S107    S    0.64925   0.17942   0.93435   1.000
    S108    S    0.46303   0.51909   0.73106   1.000
    S109    S    0.67947   0.35126   0.43370   1.000
    S110    S    0.03786   0.98129   0.73094   1.000
    S111    S    0.82076   0.14917   0.43418   1.000
    O112    O    0.08403   0.70656   0.83764   1.000
    O113    O    0.20388   0.58065   0.83420   1.000
    O114    O    0.41767   0.79426   0.83710   1.000
    O115    O    0.29753   0.91998   0.83334   1.000
    O116    O    0.29330   0.58198   0.33763   1.000
    O117    O    0.41831   0.70268   0.33349   1.000
    O118    O    0.20506   0.91598   0.33705   1.000
    O119    O    0.07956   0.79581   0.33388   1.000
    O120    O    0.91596   0.29343   0.16233   1.000
    O121    O    0.79606   0.41928   0.16573   1.000
    O122    O    0.58229   0.20566   0.16285   1.000
    O123    O    0.70248   0.08000   0.16662   1.000
    O124    O    0.70669   0.41803   0.66233   1.000
    O125    O    0.58169   0.29733   0.66647   1.000
    O126    O    0.79494   0.08403   0.66291   1.000
    O127    O    0.92044   0.20420   0.66607   1.000
loop_
    _geom_bond_atom_site_label_1
    _geom_bond_atom_site_label_2
    _geom_bond_distance
    _geom_bond_site_symmetry_2
    _ccdc_geom_bond_type
    H27    C77       1.09592  1_554   S
    H33    C83       1.09597  1_554   S
    C57    S99       1.78861      .   S
    C57    C80       1.41253      .   S
    C57    C55       1.41065  1_554   S
    C51    S97       1.78888      .   S
    C51    C74       1.41302      .   S
    C51    C49       1.41070  1_554   S
    C59    S99       1.81958      .   S
    C59    H10       1.09707      .   S
    C59    H11       1.09358      .   S
    C59    H9        1.09600  1_554   S
    C53    S97       1.81963      .   S
    C53    H4        1.09711      .   S
    C53    H5        1.09355      .   S
    C53    H3        1.09712  1_554   S
    C73    C74       1.40835  1_655   S
    C73    C72       1.52625      .   S
    C73    C75       1.41080  1_554   S
    C79    C80       1.40784  1_545   S
    C79    C78       1.52474      .   S
    C79    C81       1.41035  1_554   S
    C80    S106      1.78897      .   S
    C74    S104      1.78907      .   S
    C72    O120      1.26755      .   S
    C72    O121      1.26515      .   S
    C78    O122      1.26736      .   S
    C78    O123      1.26519      .   S
    H13    C64       1.09694      .   S
    H19    C70       1.09687      .   S
    H24    C76       1.09140      .   S
    H30    C82       1.09370      .   S
    S106   C82       1.81689      .   S
    S104   C76       1.81611  1_455   S
    H26    C76       1.09388      .   S
    H32    C82       1.09471      .   S
    C64    H14       1.09475      .   S
    C64    S100      1.81696      .   S
    C64    H12       1.09372      .   S
    C70    H20       1.09466      .   S
    C70    S102      1.81656  1_565   S
    C70    H18       1.09380      .   S
    C76    H25       1.10077      .   S
    C82    H31       1.09696      .   S
    S100   C62       1.78903      .   S
    S102   C68       1.78913      .   S
    O117   C60       1.26492      .   S
    O119   C66       1.26468      .   S
    O118   C66       1.26714      .   S
    O116   C60       1.26755      .   S
    C66    C67       1.52636      .   S
    C60    C61       1.52546      .   S
    H41    C89       1.09349      .   S
    H47    C95       1.09360      .   S
    C62    C61       1.40820      .   S
    C62    C87       1.41280      .   S
    C68    C67       1.40783  1_645   S
    C68    C93       1.41286      .   S
    H40    C89       1.09708      .   S
    C67    C69       1.41043      .   S
    C61    C63       1.41027      .   S
    S109   C89       1.81958      .   S
    S109   C87       1.78863      .   S
    H46    C95       1.09727      .   S
    S111   C95       1.81976      .   S
    S111   C93       1.78874      .   S
    C89    H39       1.09561      .   S
    C95    H45       1.09558      .   S
    C87    C85       1.41030      .   S
    C93    C91       1.41031      .   S
    H21    C71       1.09555      .   S
    H15    C65       1.09568      .   S
    C69    S103      1.78871      .   S
    C69    C92       1.41286      .   S
    C63    S101      1.78865      .   S
    C63    C86       1.41285      .   S
    C71    S103      1.81974      .   S
    C71    H22       1.09708      .   S
    C71    H23       1.09357      .   S
    C65    S101      1.81957      .   S
    C65    H16       1.09709      .   S
    C65    H17       1.09349      .   S
    C85    C86       1.40823      .   S
    C85    C84       1.52555      .   S
    C91    C92       1.40786  1_645   S
    C91    C90       1.52563      .   S
    C92    S110      1.78912      .   S
    C86    S108      1.78904      .   S
    C84    O124      1.26754      .   S
    C84    O125      1.26490      .   S
    C90    O126      1.26740      .   S
    C90    O127      1.26500      .   S
    H7     C58       1.09630      .   S
    H1     C52       1.09697      .   S
    H42    C94       1.09377      .   S
    H36    C88       1.09379      .   S
    S110   C94       1.81654  1_565   S
    S108   C88       1.81697      .   S
    H44    C94       1.09465      .   S
    H38    C88       1.09476      .   S
    C58    H8        1.09486      .   S
    C58    S98       1.81699      .   S
    C58    H6        1.09412      .   S
    C52    H2        1.09471      .   S
    C52    S96       1.81671  1_455   S
    C52    H0        1.09370      .   S
    C94    H43       1.09702      .   S
    C88    H37       1.09668      .   S
    S96    C50       1.78907      .   S
    S98    C56       1.78898      .   S
    O115   C54       1.26518      .   S
    O113   C48       1.26536      .   S
    O114   C54       1.26734      .   S
    O112   C48       1.26755      .   S
    C54    C55       1.52463      .   S
    C48    C49       1.52628      .   S
    H29    C77       1.09362      .   S
    H35    C83       1.09361      .   S
    C50    C49       1.40838  1_655   S
    C50    C75       1.41306      .   S
    C56    C55       1.40777  1_545   S
    C56    C81       1.41260      .   S
    H28    C77       1.09715      .   S
    H34    C83       1.09710      .   S
    S105   C77       1.81967      .   S
    S105   C75       1.78888      .   S
    S107   C83       1.81959      .   S
    S107   C81       1.78864      .   S
