# CIF file generated by openbabel 2.4.90, see http://openbabel.sf.net
data_I
_chemical_name_common ''
_cell_length_a 13.144
_cell_length_b 13.126
_cell_length_c 13.66
_cell_angle_alpha 89.933
_cell_angle_beta 89.933
_cell_angle_gamma 89.989
_space_group_name_H-M_alt 'P 1'
_space_group_name_Hall 'P 1'
loop_
    _symmetry_equiv_pos_as_xyz
    x,y,z
loop_
    _atom_site_label
    _atom_site_type_symbol
    _atom_site_fract_x
    _atom_site_fract_y
    _atom_site_fract_z
    _atom_site_occupancy
    Ag0     Ag   0.67554   0.16852   0.75137   1.000
    Ag1     Ag   0.66743   0.32510   0.25070   1.000
    Ag2     Ag   0.83115   0.17422   0.25102   1.000
    Ag3     Ag   0.17416   0.66704   0.24952   1.000
    Ag4     Ag   0.32442   0.83145   0.24857   1.000
    Ag5     Ag   0.33249   0.67483   0.74925   1.000
    Ag6     Ag   0.16885   0.82578   0.74897   1.000
    Ag7     Ag   0.82580   0.33292   0.75044   1.000
loop_
    _geom_bond_atom_site_label_1
    _geom_bond_atom_site_label_2
    _geom_bond_distance
    _geom_bond_site_symmetry_2
    _ccdc_geom_bond_type
    Ag4    Ag3       2.92568      .   S
    Ag1    Ag2       2.92431      .   S
    Ag6    Ag5       2.92423      .   S
    Ag7    Ag0       2.92558      .   S
