# CIF file generated by openbabel 2.4.90, see http://openbabel.sf.net
data_I
_chemical_name_common ''
_cell_length_a 13.144
_cell_length_b 13.126
_cell_length_c 13.66
_cell_angle_alpha 89.933
_cell_angle_beta 89.933
_cell_angle_gamma 89.989
_space_group_name_H-M_alt 'P 1'
_space_group_name_Hall 'P 1'
loop_
    _symmetry_equiv_pos_as_xyz
    x,y,z
loop_
    _atom_site_label
    _atom_site_type_symbol
    _atom_site_fract_x
    _atom_site_fract_y
    _atom_site_fract_z
    _atom_site_occupancy
    Zr0     Zr   0.82580   0.33292   0.75044   1.000
    Zr1     Zr   0.67554   0.16852   0.75137   1.000
    Zr2     Zr   0.66743   0.32510   0.25070   1.000
    Zr3     Zr   0.83115   0.17422   0.25102   1.000
    Zr4     Zr   0.17416   0.66704   0.24952   1.000
    Zr5     Zr   0.32442   0.83145   0.24857   1.000
    Zr6     Zr   0.33249   0.67483   0.74925   1.000
    Zr7     Zr   0.16885   0.82578   0.74897   1.000
    O8      O    0.24929   0.74925   0.24904   1.000
    O9      O    0.74929   0.24966   0.25086   1.000
    O10     O    0.25067   0.75030   0.74911   1.000
    O11     O    0.75067   0.25072   0.75090   1.000
    N12     N    0.49999   0.49999   0.49997   1.000
    O13     O    0.43568   0.63353   0.39550   1.000
    O14     O    0.36686   0.56225   0.39677   1.000
    O15     O    0.56430   0.36646   0.60445   1.000
    O16     O    0.63312   0.43773   0.60318   1.000
    N17     N    0.50000   0.99996   0.99998   1.000
    O18     O    0.43754   0.86725   0.89658   1.000
    O19     O    0.36660   0.93642   0.89557   1.000
    O20     O    0.63341   0.06353   0.10440   1.000
    O21     O    0.56243   0.13267   0.10338   1.000
    N22     N    0.99998   0.50000   0.99997   1.000
    O23     O    0.06321   0.63309   0.89664   1.000
    O24     O    0.93676   0.36691   0.10332   1.000
    O25     O    0.86586   0.43610   0.10409   1.000
    O26     O    0.13408   0.56387   0.89585   1.000
    N27     N    0.00000   0.99999   0.49998   1.000
    O28     O    0.93656   0.13428   0.60412   1.000
    O29     O    0.13237   0.93686   0.39640   1.000
    O30     O    0.86762   0.06314   0.60356   1.000
    O31     O    0.06343   0.86571   0.39584   1.000
    O32     O    0.93065   0.06454   0.40065   1.000
    O33     O    0.06446   0.56870   0.09958   1.000
    O34     O    0.93549   0.43129   0.90038   1.000
    O35     O    0.56509   0.06918   0.90075   1.000
    O36     O    0.43106   0.56467   0.59946   1.000
    O37     O    0.56890   0.43529   0.40049   1.000
    O38     O    0.43491   0.93075   0.09921   1.000
    O39     O    0.06935   0.93546   0.59933   1.000
loop_
    _geom_bond_atom_site_label_1
    _geom_bond_atom_site_label_2
    _geom_bond_distance
    _geom_bond_site_symmetry_2
    _ccdc_geom_bond_type
    Zr5    O8        1.46284      .   S
    Zr4    O8        1.46284      .   S
    Zr2    O9        1.46216      .   S
    Zr3    O9        1.46216      .   S
    Zr7    O10       1.46211      .   S
    Zr6    O10       1.46211      .   S
    Zr0    O11       1.46279      .   S
    Zr1    O11       1.46279      .   S
    N12    O13       2.41244      .   S
    Zr5    O13       3.59297      .   S
    N12    O14       2.39157      .   S
    Zr4    O14       3.51530      .   S
    N12    O15       2.41241      .   S
    Zr1    O15       3.59291      .   S
    N12    O16       2.39161      .   S
    Zr0    O16       3.51532      .   S
    N17    O18       2.39007      .   S
    Zr6    O18       3.51508      .   S
    N17    O19       2.41118      .   S
    Zr7    O19       3.59104      .   S
    N17    O20       2.41138  1_566   S
    Zr3    O20       3.59132      .   S
    N17    O21       2.38991  1_566   S
    Zr2    O21       3.51486      .   S
    N22    O23       2.39307  1_655   S
    Zr7    O23       3.51813      .   S
    N22    O24       2.39316  1_556   S
    Zr3    O24       3.51822      .   S
    N22    O25       2.41371  1_556   S
    Zr2    O25       3.59420      .   S
    N22    O26       2.41345  1_655   S
    Zr6    O26       3.59375      .   S
    N27    O28       2.41415  1_465   S
    Zr0    O28       3.59403      .   S
    N27    O29       2.39013      .   S
    Zr5    O29       3.51528      .   S
    N27    O30       2.39016  1_465   S
    Zr1    O30       3.51532      .   S
    N27    O31       2.41415      .   S
    Zr4    O31       3.59407      .   S
    Zr3    O32       2.82126      .   S
    N27    O32       1.84112  1_465   S
    N22    O33       1.84078  1_656   S
    Zr4    O33       2.82040      .   S
    N22    O34       1.84080      .   S
    Zr0    O34       2.82037      .   S
    Zr1    O35       2.82119      .   S
    N17    O35       1.84114  1_565   S
    Zr6    O36       2.82055      .   S
    N12    O36       1.84075      .   S
    Zr2    O37       2.82049      .   S
    N12    O37       1.84064      .   S
    Zr5    O38       2.82096      .   S
    N17    O38       1.84099  1_556   S
    Zr7    O39       2.82133      .   S
    N27    O39       1.84119      .   S
