# CIF file generated by openbabel 2.4.90, see http://openbabel.sf.net
data_I
_chemical_name_common ''
_cell_length_a 13.144
_cell_length_b 13.126
_cell_length_c 13.66
_cell_angle_alpha 89.933
_cell_angle_beta 89.933
_cell_angle_gamma 89.989
_space_group_name_H-M_alt 'P 1'
_space_group_name_Hall 'P 1'
loop_
    _symmetry_equiv_pos_as_xyz
    x,y,z
loop_
    _atom_site_label
    _atom_site_type_symbol
    _atom_site_fract_x
    _atom_site_fract_y
    _atom_site_fract_z
    _atom_site_occupancy
    Zr0     Zr   0.82580   0.33292   0.75044   1.000
    Zr1     Zr   0.67554   0.16852   0.75137   1.000
    Zr2     Zr   0.66743   0.32510   0.25070   1.000
    Zr3     Zr   0.83115   0.17422   0.25102   1.000
    Zr4     Zr   0.17416   0.66704   0.24952   1.000
    Zr5     Zr   0.32442   0.83145   0.24857   1.000
    Zr6     Zr   0.33249   0.67483   0.74925   1.000
    Zr7     Zr   0.16885   0.82578   0.74897   1.000
    O8      O    0.24929   0.74925   0.24904   1.000
    O9      O    0.74929   0.24966   0.25086   1.000
    O10     O    0.25067   0.75030   0.74911   1.000
    O11     O    0.75067   0.25072   0.75090   1.000
    N12     N    0.49999   0.49999   0.49997   1.000
    O13     O    0.43568   0.63353   0.39550   1.000
    O14     O    0.55108   0.45149   0.37989   1.000
    O15     O    0.36686   0.56225   0.39677   1.000
    O16     O    0.56430   0.36646   0.60445   1.000
    O17     O    0.44888   0.54847   0.62006   1.000
    O18     O    0.63312   0.43773   0.60318   1.000
    O19     O    0.41324   0.58088   0.57886   1.000
    O20     O    0.58672   0.41909   0.42109   1.000
    N21     N    0.50000   0.99996   0.99998   1.000
    O22     O    0.43754   0.86725   0.89658   1.000
    O23     O    0.41880   0.91297   0.07853   1.000
    O24     O    0.36660   0.93642   0.89557   1.000
    O25     O    0.54899   0.05140   0.88007   1.000
    O26     O    0.63341   0.06353   0.10440   1.000
    O27     O    0.45101   0.94853   0.11989   1.000
    O28     O    0.56243   0.13267   0.10338   1.000
    O29     O    0.58120   0.08696   0.92142   1.000
    N30     N    0.99998   0.50000   0.99997   1.000
    O31     O    0.06321   0.63309   0.89664   1.000
    O32     O    0.95179   0.44912   0.87981   1.000
    O33     O    0.04816   0.55088   0.12014   1.000
    O34     O    0.93676   0.36691   0.10332   1.000
    O35     O    0.08076   0.58651   0.07901   1.000
    O36     O    0.86586   0.43610   0.10409   1.000
    O37     O    0.13408   0.56387   0.89585   1.000
    O38     O    0.91919   0.41347   0.92094   1.000
    N39     N    0.00000   0.99999   0.49998   1.000
    O40     O    0.91297   0.08084   0.42129   1.000
    O41     O    0.05168   0.95177   0.61997   1.000
    O42     O    0.93656   0.13428   0.60412   1.000
    O43     O    0.13237   0.93686   0.39640   1.000
    O44     O    0.86762   0.06314   0.60356   1.000
    O45     O    0.94832   0.04823   0.38001   1.000
    O46     O    0.06343   0.86571   0.39584   1.000
    O47     O    0.08702   0.91915   0.57868   1.000
loop_
    _geom_bond_atom_site_label_1
    _geom_bond_atom_site_label_2
    _geom_bond_distance
    _geom_bond_site_symmetry_2
    _ccdc_geom_bond_type
    Zr5    O8        1.46284      .   S
    Zr4    O8        1.46284      .   S
    Zr2    O9        1.46216      .   S
    Zr3    O9        1.46216      .   S
    Zr7    O10       1.46211      .   S
    Zr6    O10       1.46211      .   S
    Zr0    O11       1.46279      .   S
    Zr1    O11       1.46279      .   S
    N12    O13       2.41244      .   S
    Zr5    O13       3.59297      .   S
    N12    O14       1.88328      .   S
    Zr2    O14       2.86430      .   S
    N12    O15       2.39157      .   S
    Zr4    O15       3.51530      .   S
    N12    O16       2.41241      .   S
    Zr1    O16       3.59291      .   S
    N12    O17       1.88339      .   S
    Zr6    O17       2.86436      .   S
    N12    O18       2.39161      .   S
    Zr0    O18       3.51532      .   S
    N12    O19       1.89421      .   S
    Zr6    O19       2.83988      .   S
    N12    O20       1.89412      .   S
    Zr2    O20       2.83984      .   S
    N21    O22       2.39007      .   S
    Zr6    O22       3.51508      .   S
    N21    O23       1.89451  1_556   S
    Zr5    O23       2.84017      .   S
    N21    O24       2.41118      .   S
    Zr7    O24       3.59104      .   S
    N21    O25       1.88374  1_565   S
    Zr1    O25       2.86519      .   S
    N21    O26       2.41138  1_566   S
    Zr3    O26       3.59132      .   S
    N21    O27       1.88364  1_556   S
    Zr5    O27       2.86493      .   S
    N21    O28       2.38991  1_566   S
    Zr2    O28       3.51486      .   S
    N21    O29       1.89469  1_565   S
    Zr1    O29       2.84036      .   S
    N30    O31       2.39307  1_655   S
    Zr7    O31       3.51813      .   S
    N30    O32       1.88325      .   S
    Zr0    O32       2.86451      .   S
    N30    O33       1.88331  1_656   S
    Zr4    O33       2.86448      .   S
    N30    O34       2.39316  1_556   S
    Zr3    O34       3.51822      .   S
    N30    O35       1.89435  1_656   S
    Zr4    O35       2.83945      .   S
    N30    O36       2.41371  1_556   S
    Zr2    O36       3.59420      .   S
    N30    O37       2.41345  1_655   S
    Zr6    O37       3.59375      .   S
    N30    O38       1.89445      .   S
    Zr0    O38       2.83938      .   S
    N39    O40       1.89468  1_465   S
    Zr3    O40       2.84034      .   S
    N39    O41       1.88376      .   S
    Zr7    O41       2.86534      .   S
    N39    O42       2.41415  1_465   S
    Zr0    O42       3.59403      .   S
    N39    O43       2.39013      .   S
    Zr5    O43       3.51528      .   S
    N39    O44       2.39016  1_465   S
    Zr1    O44       3.51532      .   S
    N39    O45       1.88365  1_465   S
    Zr3    O45       2.86531      .   S
    N39    O46       2.41415      .   S
    Zr4    O46       3.59407      .   S
    N39    O47       1.89472      .   S
    Zr7    O47       2.84044      .   S
