# CIF file generated by openbabel 2.4.90, see http://openbabel.sf.net
data_I
_chemical_name_common ''
_cell_length_a 18.488
_cell_length_b 18.475
_cell_length_c 18.451
_cell_angle_alpha 59.888
_cell_angle_beta 59.923
_cell_angle_gamma 59.966
_space_group_name_H-M_alt 'P 1'
_space_group_name_Hall 'P 1'
loop_
    _symmetry_equiv_pos_as_xyz
    x,y,z
loop_
    _atom_site_label
    _atom_site_type_symbol
    _atom_site_fract_x
    _atom_site_fract_y
    _atom_site_fract_z
    _atom_site_occupancy
    Zn0     Zn   0.19857   0.02437   0.19873   1.000
    Zn1     Zn   0.61148   0.61131   0.78564   1.000
    Zn2     Zn   0.19873   0.19871   0.02399   1.000
    Zn3     Zn   0.78528   0.61155   0.61141   1.000
    Zn4     Zn   0.02470   0.19853   0.19873   1.000
    Zn5     Zn   0.61174   0.61140   0.61110   1.000
    Zn6     Zn   0.19853   0.19852   0.19860   1.000
    Zn7     Zn   0.21474   0.38841   0.38856   1.000
    Zn8     Zn   0.97532   0.80143   0.80123   1.000
    Zn9     Zn   0.38854   0.38865   0.21430   1.000
    Zn10    Zn   0.80129   0.80125   0.97598   1.000
    Zn11    Zn   0.38836   0.21464   0.38866   1.000
    Zn12    Zn   0.80145   0.97559   0.80124   1.000
    Zn13    Zn   0.38828   0.38856   0.38879   1.000
    Zn14    Zn   0.80149   0.80144   0.80135   1.000
    H15     H    0.83683   0.06943   0.35988   1.000
    H16     H    0.74094   0.97371   0.45508   1.000
    H17     H    0.35952   0.83666   0.06971   1.000
    H18     H    0.45494   0.74065   0.97414   1.000
    H19     H    0.06919   0.35963   0.83610   1.000
    H20     H    0.97324   0.45506   0.74047   1.000
    H21     H    0.06926   0.83654   0.35963   1.000
    H22     H    0.97349   0.74072   0.45484   1.000
    H23     H    0.83698   0.35960   0.06981   1.000
    H24     H    0.74090   0.45502   0.97428   1.000
    H25     H    0.35984   0.06934   0.83603   1.000
    H26     H    0.45524   0.97343   0.74037   1.000
    H27     H    0.35659   0.06950   0.35740   1.000
    H28     H    0.45239   0.97428   0.45278   1.000
    H29     H    0.35732   0.83667   0.35710   1.000
    H30     H    0.45372   0.74082   0.45295   1.000
    H31     H    0.35654   0.35698   0.06970   1.000
    Zn32    Zn   0.61166   0.78533   0.61131   1.000
    H33     H    0.45219   0.45249   0.97467   1.000
    H34     H    0.35764   0.35731   0.83606   1.000
    H35     H    0.45387   0.45333   0.74000   1.000
    H36     H    0.06957   0.35694   0.35725   1.000
    H37     H    0.97430   0.45265   0.45270   1.000
    H38     H    0.83722   0.35695   0.35711   1.000
    H39     H    0.74129   0.45325   0.45304   1.000
    H40     H    0.93077   0.16342   0.64034   1.000
    H41     H    0.02653   0.25924   0.54513   1.000
    H42     H    0.16304   0.64036   0.93010   1.000
    H43     H    0.25912   0.54494   0.02569   1.000
    H44     H    0.64019   0.93062   0.16390   1.000
    H45     H    0.54478   0.02653   0.25960   1.000
    H46     H    0.16319   0.93053   0.64009   1.000
    H47     H    0.25908   0.02625   0.54400   1.000
    H48     H    0.64051   0.16330   0.93020   1.000
    H49     H    0.54509   0.25932   0.02582   1.000
    H50     H    0.93083   0.64032   0.16387   1.000
    H51     H    0.02678   0.54489   0.25950   1.000
    H52     H    0.93045   0.64301   0.64272   1.000
    H53     H    0.02573   0.54731   0.54727   1.000
    H54     H    0.16280   0.64300   0.64280   1.000
    H55     H    0.25873   0.54670   0.54690   1.000
    H56     H    0.64349   0.64298   0.93027   1.000
    H57     H    0.54784   0.54747   0.02529   1.000
    H58     H    0.64239   0.64264   0.16390   1.000
    H59     H    0.54616   0.54662   0.25957   1.000
    H60     H    0.64343   0.93046   0.64257   1.000
    H61     H    0.54764   0.02569   0.54719   1.000
    H62     H    0.64269   0.16329   0.64288   1.000
    H63     H    0.54629   0.25915   0.54703   1.000
    C64     C    0.86607   0.99740   0.38105   1.000
    C65     C    0.81278   0.94417   0.43394   1.000
    C66     C    0.38086   0.86593   0.99750   1.000
    C67     C    0.43385   0.81256   0.94441   1.000
    C68     C    0.99728   0.38090   0.86566   1.000
    C69     C    0.94390   0.43391   0.81253   1.000
    C70     C    0.99734   0.86589   0.38091   1.000
    C71     C    0.94407   0.81264   0.43380   1.000
    C72     C    0.86613   0.38088   0.99764   1.000
    C73     C    0.81273   0.43388   0.94452   1.000
    C74     C    0.38104   0.99732   0.86558   1.000
    C75     C    0.43403   0.94397   0.81243   1.000
    C76     C    0.29389   0.01611   0.29430   1.000
    C77     C    0.35129   0.95872   0.35157   1.000
    C78     C    0.37800   0.99761   0.37840   1.000
    C79     C    0.43140   0.94453   0.43162   1.000
    C80     C    0.37859   0.86596   0.37847   1.000
    C81     C    0.43199   0.81285   0.43158   1.000
    C82     C    0.45879   0.85177   0.45854   1.000
    C83     C    0.51624   0.79450   0.51567   1.000
    C84     C    0.29405   0.29416   0.01587   1.000
    C85     C    0.35141   0.35146   0.95851   1.000
    C86     C    0.37799   0.37821   0.99767   1.000
    C87     C    0.43131   0.43145   0.94470   1.000
    C88     C    0.37879   0.37858   0.86557   1.000
    C89     C    0.43211   0.43178   0.81257   1.000
    C90     C    0.45876   0.45860   0.85176   1.000
    C91     C    0.51613   0.51582   0.79455   1.000
    C92     C    0.01639   0.29390   0.29426   1.000
    C93     C    0.95905   0.35127   0.35152   1.000
    C94     C    0.99780   0.37816   0.37838   1.000
    C95     C    0.94467   0.43151   0.43157   1.000
    C96     C    0.86639   0.37835   0.37847   1.000
    C97     C    0.81325   0.43169   0.43162   1.000
    C98     C    0.85203   0.45865   0.45856   1.000
    C99     C    0.79472   0.51601   0.51575   1.000
    O100    O    0.28907   0.46173   0.46222   1.000
    O101    O    0.89993   0.72800   0.72787   1.000
    O102    O    0.02320   0.72825   0.72761   1.000
    O103    O    0.46198   0.46209   0.16562   1.000
    C104    C    0.01606   0.01598   0.29582   1.000
    C105    C    0.95872   0.95864   0.35394   1.000
    C106    C    0.85140   0.85140   0.46062   1.000
    C107    C    0.79416   0.79417   0.51702   1.000
    C108    C    0.29567   0.01609   0.01581   1.000
    C109    C    0.35385   0.95868   0.95852   1.000
    C110    C    0.46076   0.85120   0.85145   1.000
    C111    C    0.51727   0.79393   0.79426   1.000
    C112    C    0.01619   0.29560   0.01587   1.000
    C113    C    0.95878   0.35379   0.95860   1.000
    C114    C    0.85124   0.46071   0.85157   1.000
    C115    C    0.79395   0.51720   0.79437   1.000
    C116    C    0.00269   0.13407   0.61906   1.000
    C117    C    0.05596   0.18732   0.56617   1.000
    C118    C    0.13389   0.61908   0.00232   1.000
    C119    C    0.18729   0.56607   0.05544   1.000
    C120    C    0.61898   0.00264   0.13438   1.000
    C121    C    0.56599   0.05599   0.18750   1.000
    C122    C    0.13396   0.00255   0.61892   1.000
    C123    C    0.18724   0.05579   0.56604   1.000
    C124    C    0.61917   0.13403   0.00242   1.000
    C125    C    0.56618   0.18740   0.05556   1.000
    C126    C    0.00274   0.61906   0.13430   1.000
    C127    C    0.05613   0.56604   0.18744   1.000
    C128    C    0.98363   0.70605   0.70571   1.000
    C129    C    0.04097   0.64868   0.64846   1.000
    C130    C    0.00222   0.62179   0.62160   1.000
    C131    C    0.05535   0.56844   0.56841   1.000
    C132    C    0.13363   0.62160   0.62151   1.000
    C133    C    0.18678   0.56825   0.56836   1.000
    C134    C    0.14800   0.54130   0.54142   1.000
    C135    C    0.20530   0.48395   0.48422   1.000
    C136    C    0.70598   0.70580   0.98410   1.000
    C137    C    0.64861   0.64850   0.04145   1.000
    C138    C    0.62204   0.62174   0.00229   1.000
    C139    C    0.56872   0.56851   0.05526   1.000
    C140    C    0.62124   0.62137   0.13440   1.000
    C141    C    0.56793   0.56817   0.18739   1.000
    C142    C    0.54127   0.54135   0.14820   1.000
    C143    C    0.48390   0.48414   0.20541   1.000
    C144    C    0.70613   0.98386   0.70567   1.000
    C145    C    0.64873   0.04124   0.64840   1.000
    C146    C    0.62202   0.00235   0.62151   1.000
    C147    C    0.56863   0.05544   0.56834   1.000
    C148    C    0.62142   0.13400   0.62151   1.000
    C149    C    0.56803   0.18711   0.56839   1.000
    C150    C    0.54123   0.14819   0.54143   1.000
    C151    C    0.48378   0.20546   0.48429   1.000
    C152    C    0.98397   0.98398   0.70415   1.000
    C153    C    0.04131   0.04132   0.64603   1.000
    C154    C    0.14862   0.14856   0.53935   1.000
    C155    C    0.20586   0.20579   0.48295   1.000
    C156    C    0.98383   0.70436   0.98410   1.000
    C157    C    0.04125   0.64616   0.04137   1.000
    C158    C    0.14879   0.53924   0.14840   1.000
    C159    C    0.20607   0.48275   0.20559   1.000
    C160    C    0.70436   0.98388   0.98416   1.000
    C161    C    0.64618   0.04128   0.04144   1.000
    C162    C    0.53926   0.14876   0.14851   1.000
    C163    C    0.48276   0.20603   0.20571   1.000
    O164    O    0.71030   0.83359   0.53891   1.000
    O165    O    0.97654   0.09981   0.27337   1.000
    O166    O    0.53905   0.70998   0.83380   1.000
    O167    O    0.27297   0.97645   0.09981   1.000
    O168    O    0.83333   0.53918   0.71027   1.000
    O169    O    0.09993   0.27296   0.97601   1.000
    O170    O    0.83353   0.71023   0.53886   1.000
    O171    O    0.09980   0.97632   0.27320   1.000
    O172    O    0.71008   0.53902   0.83395   1.000
    O173    O    0.97670   0.27313   0.09987   1.000
    O174    O    0.53932   0.83338   0.71010   1.000
    O175    O    0.27324   0.09993   0.97596   1.000
    O176    O    0.53821   0.83411   0.53786   1.000
    O177    O    0.53865   0.71064   0.53761   1.000
    O178    O    0.27187   0.09989   0.27218   1.000
    O179    O    0.27180   0.97644   0.27236   1.000
    O180    O    0.53804   0.53787   0.83434   1.000
    O181    O    0.53853   0.53794   0.71050   1.000
    O182    O    0.27196   0.27199   0.09981   1.000
    O183    O    0.27204   0.27228   0.97606   1.000
    O184    O    0.83420   0.53809   0.53795   1.000
    O185    O    0.71096   0.53824   0.53774   1.000
    O186    O    0.10009   0.27197   0.27209   1.000
    O187    O    0.97683   0.27171   0.27230   1.000
    O188    O    0.65494   0.65483   0.65490   1.000
    O189    O    0.15521   0.15504   0.15491   1.000
    O190    O    0.16649   0.28973   0.46111   1.000
    O191    O    0.90022   0.02364   0.72670   1.000
    O192    O    0.28994   0.46094   0.16602   1.000
    O193    O    0.02332   0.72683   0.90000   1.000
    O194    O    0.46070   0.16658   0.28982   1.000
    O195    O    0.72679   0.90003   0.02400   1.000
    O196    O    0.28973   0.16637   0.46106   1.000
    O197    O    0.02349   0.90014   0.72659   1.000
    O198    O    0.46097   0.28999   0.16610   1.000
    O199    O    0.72705   0.02351   0.90015   1.000
    O200    O    0.16669   0.46078   0.28970   1.000
    O201    O    0.90010   0.72699   0.02390   1.000
    O202    O    0.16582   0.46187   0.46202   1.000
    O203    O    0.46151   0.46200   0.28944   1.000
    O204    O    0.72806   0.72799   0.90015   1.000
    O205    O    0.72798   0.72769   0.02391   1.000
    O206    O    0.46182   0.16585   0.46210   1.000
    O207    O    0.46137   0.28932   0.46236   1.000
    O208    O    0.72815   0.90007   0.72779   1.000
    O209    O    0.72823   0.02352   0.72760   1.000
    O210    O    0.34508   0.34513   0.34506   1.000
    O211    O    0.84482   0.84492   0.84506   1.000
loop_
    _geom_bond_atom_site_label_1
    _geom_bond_atom_site_label_2
    _geom_bond_distance
    _geom_bond_site_symmetry_2
    _ccdc_geom_bond_type
    C138   C137      1.40176      .   S
    C138   C139      1.39092      .   S
    C138   H56       1.08694  1_554   S
    C118   C157      1.40359      .   S
    C118   C119      1.39045      .   S
    C118   H42       1.08963  1_554   S
    C124   C161      1.40356      .   S
    C124   C125      1.39049      .   S
    C124   H48       1.08964  1_554   S
    C108   O167      1.27725  1_545   S
    C108   C109      1.49744  1_544   S
    C108   O175      1.27744  1_554   S
    C84    O182      1.27678      .   S
    C84    C85       1.49675  1_554   S
    C84    O183      1.27706  1_554   S
    C112   O173      1.27716  1_455   S
    C112   C113      1.49704  1_454   S
    C112   O169      1.27740  1_554   S
    O201   Zn10      1.97336  1_554   S
    O201   C156      1.27725  1_554   S
    O205   Zn10      1.97547  1_554   S
    O205   C136      1.27702  1_554   S
    Zn2    O175      1.97387  1_554   S
    Zn2    O169      1.97393  1_554   S
    Zn2    O183      1.97547  1_554   S
    O195   Zn10      1.97375  1_554   S
    O195   C160      1.27743  1_554   S
    H57    C139      1.08888      .   S
    H43    C119      1.08757      .   S
    H49    C125      1.08760      .   S
    C157   C126      1.40335      .   S
    C157   C156      1.49702  1_454   S
    C161   C120      1.40351      .   S
    C161   C160      1.49730  1_544   S
    C137   C140      1.40361      .   S
    C137   C136      1.49675  1_554   S
    C139   C142      1.40330      .   S
    C119   C158      1.40381      .   S
    C125   C162      1.40366      .   S
    H31    C86       1.08710  1_554   S
    H17    C66       1.08950  1_554   S
    H23    C72       1.08889  1_554   S
    O167   Zn0       1.97307  1_565   S
    O182   Zn6       1.97215      .   S
    O173   Zn4       1.97230  1_655   S
    C126   H50       1.08841  1_455   S
    C126   C127      1.39048      .   S
    C120   H44       1.08882  1_545   S
    C120   C121      1.39001      .   S
    C140   H58       1.08871      .   S
    C140   C141      1.39041      .   S
    C142   C141      1.40440      .   S
    C142   C143      1.49569      .   S
    C158   C127      1.40381      .   S
    C158   C159      1.49435      .   S
    C162   C121      1.40374      .   S
    C162   C163      1.49454      .   S
    O189   Zn6       1.96912      .   S
    O189   Zn4       1.96896      .   S
    O103   C143      1.27781      .   S
    O103   Zn9       1.97226      .   S
    O192   C159      1.27851      .   S
    O192   Zn9       1.97413      .   S
    O198   C163      1.27848      .   S
    O198   Zn9       1.97393      .   S
    C141   H59       1.08871      .   S
    C127   H51       1.08752      .   S
    C121   H45       1.08812      .   S
    Zn6    O186      1.97299      .   S
    Zn6    O178      1.97273      .   S
    Zn0    O179      1.97463  1_545   S
    Zn0    O171      1.97342  1_545   S
    Zn4    O187      1.97315  1_455   S
    Zn4    O165      1.97274  1_455   S
    C143   O203      1.27765      .   S
    C159   O200      1.27848      .   S
    C163   O194      1.27837      .   S
    O186   C92       1.27684      .   S
    O178   C76       1.27683      .   S
    O187   C92       1.27727  1_655   S
    O179   C76       1.27694  1_565   S
    O171   C104      1.27741  1_565   S
    O165   C104      1.27722  1_655   S
    O203   Zn13      1.97224      .   S
    O200   Zn7       1.97281      .   S
    O194   Zn11      1.97336      .   S
    C92    C93       1.49656  1_455   S
    C76    C77       1.49676  1_545   S
    C104   C105      1.49683  1_445   S
    O210   Zn7       1.96652      .   S
    O210   Zn11      1.96671      .   S
    C93    C94       1.40170      .   S
    C93    C96       1.40360      .   S
    C77    C78       1.40078      .   S
    C77    C80       1.40360      .   S
    C105   C70       1.40349      .   S
    C105   C64       1.40353      .   S
    H29    C80       1.08871      .   S
    H38    C96       1.08870      .   S
    H36    C94       1.08656  1_455   S
    H27    C78       1.08713  1_545   S
    H21    C70       1.08840  1_455   S
    H15    C64       1.08884  1_545   S
    C94    C95       1.39090      .   S
    C78    C79       1.39171      .   S
    C80    C81       1.39036      .   S
    C96    C97       1.39035      .   S
    C70    C71       1.39038      .   S
    C64    C65       1.39041      .   S
    Zn7    O190      1.97317      .   S
    Zn7    O202      1.97113      .   S
    Zn11   O196      1.97381      .   S
    Zn11   O206      1.97147      .   S
    Zn13   O100      1.97280      .   S
    Zn13   O207      1.97268      .   S
    C95    H37       1.08878      .   S
    C95    C98       1.40325      .   S
    C81    H30       1.08864      .   S
    C81    C82       1.40444      .   S
    C97    H39       1.08865      .   S
    C97    C98       1.40435      .   S
    C79    H28       1.08895      .   S
    C79    C82       1.40327      .   S
    C71    H22       1.08754      .   S
    C71    C106      1.40378      .   S
    C65    H16       1.08755      .   S
    C65    C106      1.40374      .   S
    C82    C83       1.49557      .   S
    C98    C99       1.49541      .   S
    C106   C107      1.49433      .   S
    O196   C155      1.27848      .   S
    O190   C155      1.27840      .   S
    O202   C135      1.27774      .   S
    O206   C151      1.27783      .   S
    O100   C135      1.27760      .   S
    O207   C151      1.27762      .   S
    C155   C154      1.49435      .   S
    C135   C134      1.49547      .   S
    C151   C150      1.49565      .   S
    C83    O177      1.27760      .   S
    C83    O176      1.27785      .   S
    C99    O185      1.27760      .   S
    C99    O184      1.27775      .   S
    C107   O170      1.27840      .   S
    C107   O164      1.27848      .   S
    O177   Zn5       1.97187      .   S
    O185   Zn5       1.97205      .   S
    O176   Zn32      1.97162      .   S
    O184   Zn3       1.97117      .   S
    O170   Zn3       1.97317      .   S
    O164   Zn32      1.97382      .   S
    C154   C123      1.40372      .   S
    C154   C117      1.40378      .   S
    C134   C133      1.40429      .   S
    C134   C131      1.40327      .   S
    C150   C147      1.40327      .   S
    C150   C149      1.40440      .   S
    H47    C123      1.08765      .   S
    H41    C117      1.08754      .   S
    H55    C133      1.08858      .   S
    H63    C149      1.08864      .   S
    H61    C147      1.08878      .   S
    H53    C131      1.08889      .   S
    C123   C122      1.39041      .   S
    C117   C116      1.39037      .   S
    C147   C146      1.39100      .   S
    C133   C132      1.39035      .   S
    C149   C148      1.39042      .   S
    C131   C130      1.39092      .   S
    Zn5    O181      1.97247      .   S
    Zn32   O188      1.96673      .   S
    Zn32   O174      1.97259      .   S
    Zn3    O188      1.96652      .   S
    Zn3    O168      1.97281      .   S
    C122   H46       1.08885  1_545   S
    C122   C153      1.40354      .   S
    C116   H40       1.08840  1_455   S
    C116   C153      1.40349      .   S
    C132   H54       1.08764      .   S
    C132   C129      1.40359      .   S
    C148   H62       1.08870      .   S
    C148   C145      1.40361      .   S
    C146   H60       1.08704  1_545   S
    C146   C145      1.40163      .   S
    C130   H52       1.08656  1_455   S
    C130   C129      1.40169      .   S
    C153   C152      1.49683  1_445   S
    C145   C144      1.49675  1_545   S
    C129   C128      1.49649  1_455   S
    C152   O197      1.27723  1_655   S
    C152   O191      1.27739  1_565   S
    C144   O209      1.27694  1_565   S
    C144   O208      1.27682      .   S
    C128   O102      1.27641  1_655   S
    C128   O101      1.27684      .   S
    O174   C111      1.27908      .   S
    O168   C115      1.27834      .   S
    O181   C91       1.27799      .   S
    O197   Zn8       1.97273  1_455   S
    O191   Zn12      1.97344  1_545   S
    O209   Zn12      1.97471  1_545   S
    O102   Zn8       1.97399  1_455   S
    O208   Zn14      1.97252      .   S
    O101   Zn14      1.97287      .   S
    H35    C89       1.09487      .   S
    H26    C75       1.08754      .   S
    H20    C69       1.08752      .   S
    Zn1    O166      1.97348      .   S
    Zn1    O172      1.97448      .   S
    Zn1    O180      1.97216      .   S
    C111   O166      1.27832      .   S
    C111   C110      1.49441      .   S
    C115   O172      1.27853      .   S
    C115   C114      1.49448      .   S
    C91    O180      1.27779      .   S
    C91    C90       1.49570      .   S
    Zn8    O211      1.96894      .   S
    Zn8    O193      1.97098  1_655   S
    Zn12   O211      1.96936      .   S
    Zn12   O199      1.97292  1_565   S
    Zn14   O204      1.97218      .   S
    C75    C110      1.40380      .   S
    C75    C74       1.39039      .   S
    C69    C114      1.40383      .   S
    C69    C68       1.39034      .   S
    C89    C90       1.40443      .   S
    C89    C88       1.39040      .   S
    H25    C74       1.08885  1_545   S
    H34    C88       1.08888      .   S
    H19    C68       1.08841  1_455   S
    C110   C67       1.40381      .   S
    C114   C73       1.40367      .   S
    C90    C87       1.40330      .   S
    C88    C85       1.40345      .   S
    C74    C109      1.40351      .   S
    C68    C113      1.40350      .   S
    O193   C156      1.27857  1_455   S
    O204   C136      1.27694      .   S
    O199   C160      1.27739  1_545   S
    C67    H18       1.08758      .   S
    C67    C66       1.38984      .   S
    C73    H24       1.08759      .   S
    C73    C72       1.39045      .   S
    C87    H33       1.08891      .   S
    C87    C86       1.39092      .   S
    C85    C86       1.40177      .   S
    C109   C66       1.40350      .   S
    C113   C72       1.40357      .   S
    O188   Zn1       1.96698      .   S
    O188   Zn5       1.96820      .   S
    O189   Zn0       1.96936      .   S
    O189   Zn2       1.96968      .   S
    O210   Zn9       1.96728      .   S
    O210   Zn13      1.96716      .   S
    O211   Zn10      1.96968      .   S
    O211   Zn14      1.96938      .   S
