# CIF file generated by openbabel 2.4.90, see http://openbabel.sf.net
data_I
_chemical_name_common ''
_cell_length_a 18.488
_cell_length_b 18.475
_cell_length_c 18.451
_cell_angle_alpha 59.888
_cell_angle_beta 59.923
_cell_angle_gamma 59.966
_space_group_name_H-M_alt 'P 1'
_space_group_name_Hall 'P 1'
loop_
    _symmetry_equiv_pos_as_xyz
    x,y,z
loop_
    _atom_site_label
    _atom_site_type_symbol
    _atom_site_fract_x
    _atom_site_fract_y
    _atom_site_fract_z
    _atom_site_occupancy
    N0      N    0.59497   0.09469   0.59494   1.000
    N1      N    0.09494   0.09492   0.59298   1.000
    N2      N    0.09499   0.59305   0.09486   1.000
    N3      N    0.59306   0.09499   0.09495   1.000
    N4      N    0.90508   0.90504   0.40693   1.000
    N5      N    0.40697   0.90497   0.90499   1.000
    N6      N    0.40505   0.90528   0.40502   1.000
    N7      N    0.59494   0.59494   0.09479   1.000
    N8      N    0.40508   0.40502   0.90515   1.000
    N9      N    0.90503   0.40690   0.90509   1.000
    N10     N    0.90555   0.40496   0.40502   1.000
    N11     N    0.09448   0.59500   0.59494   1.000
    Zr12    Zr   0.34500   0.34508   0.34507   1.000
    Zr13    Zr   0.15515   0.15504   0.15499   1.000
    Zr14    Zr   0.84487   0.84493   0.84497   1.000
    Zr15    Zr   0.65502   0.65488   0.65487   1.000
    O16     O    0.07272   0.23755   0.23761   1.000
    O17     O    0.23767   0.23762   0.07244   1.000
    O18     O    0.07257   0.07247   0.23823   1.000
    O19     O    0.07259   0.23820   0.07243   1.000
    O20     O    0.23829   0.07248   0.07240   1.000
    O21     O    0.23763   0.07254   0.23762   1.000
    O22     O    0.73778   0.57239   0.57233   1.000
    O23     O    0.42693   0.26253   0.26246   1.000
    O24     O    0.26249   0.42698   0.26241   1.000
    O25     O    0.26224   0.42757   0.42762   1.000
    O26     O    0.42751   0.42761   0.26237   1.000
    O27     O    0.26244   0.26247   0.42699   1.000
    O28     O    0.42748   0.26236   0.42764   1.000
    O29     O    0.76174   0.92749   0.92756   1.000
    O30     O    0.57252   0.57235   0.73757   1.000
    O31     O    0.73758   0.73750   0.57295   1.000
    O32     O    0.73753   0.57298   0.73754   1.000
    O33     O    0.57310   0.73743   0.73749   1.000
    O34     O    0.57254   0.73760   0.57231   1.000
    O35     O    0.92744   0.76176   0.92752   1.000
    O36     O    0.92730   0.76241   0.76235   1.000
    O37     O    0.76235   0.76235   0.92752   1.000
    O38     O    0.92745   0.92749   0.76172   1.000
    O39     O    0.76239   0.92743   0.76235   1.000
loop_
    _geom_bond_atom_site_label_1
    _geom_bond_atom_site_label_2
    _geom_bond_distance
    _geom_bond_site_symmetry_2
    _ccdc_geom_bond_type
    Zr13   O16       2.15589      .   S
    N10    O16       4.37117  1_655   S
    Zr13   O17       2.15514      .   S
    N8     O17       4.37034  1_556   S
    Zr13   O18       2.15566      .   S
    N4     O18       4.37168  1_665   S
    Zr13   O19       2.15536      .   S
    N9     O19       4.37138  1_656   S
    Zr13   O20       2.15614      .   S
    N5     O20       4.37250  1_566   S
    Zr13   O21       2.15523      .   S
    N6     O21       4.37042  1_565   S
    N10    O22       4.37013      .   S
    Zr15   O22       2.15468      .   S
    Zr12   O23       2.15638      .   S
    N3     O23       4.37412      .   S
    Zr12   O24       2.15603      .   S
    N2     O24       4.37366      .   S
    Zr12   O25       2.15471      .   S
    N11    O25       4.37021      .   S
    Zr12   O26       2.15419      .   S
    N7     O26       4.36984      .   S
    Zr12   O27       2.15606      .   S
    N1     O27       4.37358      .   S
    Zr12   O28       2.15441      .   S
    N0     O28       4.37005      .   S
    N3     O29       4.37232  1_544   S
    Zr14   O29       2.15608      .   S
    N8     O30       4.36983      .   S
    Zr15   O30       2.15419      .   S
    N4     O31       4.37357      .   S
    Zr15   O31       2.15606      .   S
    N9     O32       4.37368      .   S
    Zr15   O32       2.15611      .   S
    N5     O33       4.37416      .   S
    Zr15   O33       2.15633      .   S
    N6     O34       4.36989      .   S
    Zr15   O34       2.15435      .   S
    Zr14   O35       2.15521      .   S
    N2     O35       4.37140  1_454   S
    Zr14   O36       2.15599      .   S
    N11    O36       4.37120  1_455   S
    Zr14   O37       2.15514      .   S
    N7     O37       4.37034  1_554   S
    Zr14   O38       2.15566      .   S
    N1     O38       4.37168  1_445   S
    Zr14   O39       2.15524      .   S
    N0     O39       4.37043  1_545   S
