# CIF file generated by openbabel 2.4.90, see http://openbabel.sf.net
data_I
_chemical_name_common ''
_cell_length_a 18.488
_cell_length_b 18.475
_cell_length_c 18.451
_cell_angle_alpha 59.888
_cell_angle_beta 59.923
_cell_angle_gamma 59.966
_space_group_name_H-M_alt 'P 1'
_space_group_name_Hall 'P 1'
loop_
    _symmetry_equiv_pos_as_xyz
    x,y,z
loop_
    _atom_site_label
    _atom_site_type_symbol
    _atom_site_fract_x
    _atom_site_fract_y
    _atom_site_fract_z
    _atom_site_occupancy
    N0      N    0.59497   0.09469   0.59494   1.000
    N1      N    0.09494   0.09492   0.59298   1.000
    N2      N    0.09499   0.59305   0.09486   1.000
    N3      N    0.59306   0.09499   0.09495   1.000
    N4      N    0.90508   0.90504   0.40693   1.000
    N5      N    0.40697   0.90497   0.90499   1.000
    N6      N    0.40505   0.90528   0.40502   1.000
    N7      N    0.59494   0.59494   0.09479   1.000
    N8      N    0.40508   0.40502   0.90515   1.000
    N9      N    0.90503   0.40690   0.90509   1.000
    N10     N    0.90555   0.40496   0.40502   1.000
    N11     N    0.09448   0.59500   0.59494   1.000
    Zr12    Zr   0.34500   0.34508   0.34507   1.000
    O13     O    0.42690   0.24394   0.28109   1.000
    O14     O    0.28100   0.24389   0.42700   1.000
    O15     O    0.42752   0.24377   0.42762   1.000
    O16     O    0.42695   0.28112   0.24383   1.000
    O17     O    0.28106   0.42700   0.24379   1.000
    O18     O    0.42755   0.42762   0.24372   1.000
    O19     O    0.42746   0.42760   0.28101   1.000
    O20     O    0.28079   0.42758   0.42765   1.000
    O21     O    0.42745   0.28095   0.42767   1.000
    O22     O    0.24369   0.42757   0.42760   1.000
    O23     O    0.24393   0.42695   0.28103   1.000
    O24     O    0.24389   0.28104   0.42699   1.000
    Zr25    Zr   0.15515   0.15504   0.15499   1.000
    O26     O    0.09129   0.23757   0.23759   1.000
    O27     O    0.23766   0.23759   0.09108   1.000
    O28     O    0.23764   0.09114   0.23760   1.000
    O29     O    0.09114   0.05386   0.23822   1.000
    O30     O    0.23826   0.05386   0.09106   1.000
    O31     O    0.23763   0.05394   0.23764   1.000
    O32     O    0.23769   0.23765   0.05379   1.000
    O33     O    0.09117   0.23820   0.05377   1.000
    O34     O    0.23831   0.09109   0.05374   1.000
    O35     O    0.05415   0.23754   0.23763   1.000
    O36     O    0.05401   0.23820   0.09109   1.000
    O37     O    0.05400   0.09107   0.23824   1.000
    Zr38    Zr   0.84487   0.84493   0.84497   1.000
    O39     O    0.76171   0.90887   0.94622   1.000
    O40     O    0.90886   0.76176   0.94619   1.000
    O41     O    0.76233   0.76232   0.94617   1.000
    O42     O    0.76237   0.76238   0.90887   1.000
    O43     O    0.76239   0.90883   0.76236   1.000
    O44     O    0.90873   0.76239   0.76237   1.000
    O45     O    0.94587   0.76242   0.76233   1.000
    O46     O    0.94601   0.76176   0.90885   1.000
    O47     O    0.94602   0.90889   0.76171   1.000
    O48     O    0.76177   0.94610   0.90890   1.000
    O49     O    0.90888   0.94610   0.76172   1.000
    O50     O    0.76239   0.94603   0.76233   1.000
    Zr51    Zr   0.65502   0.65488   0.65487   1.000
    O52     O    0.71924   0.57239   0.57230   1.000
    O53     O    0.57257   0.57236   0.71892   1.000
    O54     O    0.57257   0.71902   0.57228   1.000
    O55     O    0.71903   0.75607   0.57295   1.000
    O56     O    0.57313   0.75602   0.71886   1.000
    O57     O    0.57251   0.75619   0.57234   1.000
    O58     O    0.71897   0.57296   0.75616   1.000
    O59     O    0.57247   0.57234   0.75622   1.000
    O60     O    0.57307   0.71885   0.75611   1.000
    O61     O    0.75633   0.57239   0.57236   1.000
    O62     O    0.75613   0.71893   0.57295   1.000
    O63     O    0.75610   0.57301   0.71892   1.000
loop_
    _geom_bond_atom_site_label_1
    _geom_bond_atom_site_label_2
    _geom_bond_distance
    _geom_bond_site_symmetry_2
    _ccdc_geom_bond_type
    Zr12   O13       2.18349      .   S
    N3     O13       4.38742      .   S
    Zr12   O14       2.18308      .   S
    N1     O14       4.38712      .   S
    Zr12   O15       2.18181      .   S
    N0     O15       4.38347      .   S
    Zr12   O16       2.18349      .   S
    N3     O16       4.38767      .   S
    Zr12   O17       2.18309      .   S
    N2     O17       4.38733      .   S
    Zr12   O18       2.18160      .   S
    N7     O18       4.38339      .   S
    Zr12   O19       2.18121      .   S
    N7     O19       4.38324      .   S
    Zr12   O20       2.18161      .   S
    N11    O20       4.38380      .   S
    Zr12   O21       2.18138      .   S
    N0     O21       4.38357      .   S
    Zr12   O22       2.18214      .   S
    N11    O22       4.38354      .   S
    Zr12   O23       2.18321      .   S
    N2     O23       4.38684      .   S
    Zr12   O24       2.18322      .   S
    N1     O24       4.38688      .   S
    Zr25   O26       2.18346      .   S
    N10    O26       4.38428  1_655   S
    Zr25   O27       2.18282      .   S
    N8     O27       4.38319  1_556   S
    Zr25   O28       2.18283      .   S
    N6     O28       4.38345  1_565   S
    Zr25   O29       2.18286      .   S
    N4     O29       4.38515  1_665   S
    Zr25   O30       2.18329      .   S
    N5     O30       4.38590  1_566   S
    Zr25   O31       2.18202      .   S
    N6     O31       4.38434  1_565   S
    Zr25   O32       2.18191      .   S
    N8     O32       4.38447  1_556   S
    Zr25   O33       2.18263      .   S
    N9     O33       4.38494  1_656   S
    Zr25   O34       2.18338      .   S
    N5     O34       4.38605  1_566   S
    Zr25   O35       2.18263      .   S
    N10    O35       4.38498  1_655   S
    Zr25   O36       2.18249      .   S
    N9     O36       4.38478  1_656   S
    Zr25   O37       2.18281      .   S
    N4     O37       4.38513  1_665   S
    Zr38   O39       2.18331      .   S
    N3     O39       4.38588  1_544   S
    Zr38   O40       2.18251      .   S
    N2     O40       4.38492  1_454   S
    Zr38   O41       2.18190      .   S
    N7     O41       4.38449  1_554   S
    Zr38   O42       2.18283      .   S
    N7     O42       4.38318  1_554   S
    Zr38   O43       2.18285      .   S
    N0     O43       4.38345  1_545   S
    Zr38   O44       2.18352      .   S
    N11    O44       4.38435  1_455   S
    Zr38   O45       2.18275      .   S
    N11    O45       4.38496  1_455   S
    Zr38   O46       2.18233      .   S
    N2     O46       4.38484  1_454   S
    Zr38   O47       2.18281      .   S
    N1     O47       4.38513  1_445   S
    Zr38   O48       2.18323      .   S
    N3     O48       4.38571  1_544   S
    Zr38   O49       2.18285      .   S
    N1     O49       4.38515  1_445   S
    Zr38   O50       2.18202      .   S
    N0     O50       4.38437  1_545   S
    Zr51   O52       2.18165      .   S
    N10    O52       4.38366      .   S
    Zr51   O53       2.18123      .   S
    N8     O53       4.38324      .   S
    Zr51   O54       2.18138      .   S
    N6     O54       4.38337      .   S
    Zr51   O55       2.18308      .   S
    N4     O55       4.38711      .   S
    Zr51   O56       2.18349      .   S
    N5     O56       4.38743      .   S
    Zr51   O57       2.18171      .   S
    N6     O57       4.38336      .   S
    Zr51   O58       2.18314      .   S
    N9     O58       4.38739      .   S
    Zr51   O59       2.18159      .   S
    N8     O59       4.38340      .   S
    Zr51   O60       2.18340      .   S
    N5     O60       4.38775      .   S
    Zr51   O61       2.18205      .   S
    N10    O61       4.38353      .   S
    Zr51   O62       2.18322      .   S
    N4     O62       4.38688      .   S
    Zr51   O63       2.18330      .   S
    N9     O63       4.38684      .   S
