# CIF file generated by openbabel 2.4.90, see http://openbabel.sf.net
data_I
_chemical_name_common ''
_cell_length_a 6.8215
_cell_length_b 9.31303
_cell_length_c 10.182
_cell_angle_alpha 67.1916
_cell_angle_beta 81.405
_cell_angle_gamma 73.3754
_space_group_name_H-M_alt 'P 1'
_space_group_name_Hall 'P 1'
loop_
    _symmetry_equiv_pos_as_xyz
    x,y,z
loop_
    _atom_site_label
    _atom_site_type_symbol
    _atom_site_fract_x
    _atom_site_fract_y
    _atom_site_fract_z
    _atom_site_occupancy
    Ca0     Ca   0.75536   0.54482   0.88208   1.000
    H1      H    0.25014   0.27293   0.44622   1.000
    H2      H    0.24405   0.91261   0.23993   1.000
    H3      H    0.27525   0.89274   0.66703   1.000
    H4      H    0.22222   0.47729   0.59839   1.000
    H5      H    0.74998   0.72700   0.55378   1.000
    H6      H    0.75608   0.08730   0.76007   1.000
    H7      H    0.72489   0.10719   0.33296   1.000
    H8      H    0.77789   0.52263   0.40162   1.000
    C9      C    0.23720   0.68577   0.40905   1.000
    C10     C    0.25045   0.67546   0.64933   1.000
    C11     C    0.24606   0.84689   0.35469   1.000
    C12     C    0.25778   0.09531   0.38989   1.000
    C13     C    0.26309   0.83538   0.59466   1.000
    C14     C    0.22975   0.60575   0.30800   1.000
    C15     C    0.25407   0.58792   0.80714   1.000
    C16     C    0.23436   0.60127   0.55667   1.000
    C17     C    0.25608   0.92270   0.44743   1.000
    C18     C    0.76294   0.31414   0.59096   1.000
    C19     C    0.74971   0.32445   0.35067   1.000
    C20     C    0.75408   0.15303   0.64531   1.000
    C21     C    0.74238   0.90460   0.61010   1.000
    C22     C    0.73706   0.16454   0.40534   1.000
    C23     C    0.77034   0.39418   0.69201   1.000
    C24     C    0.74607   0.41200   0.19287   1.000
    C25     C    0.76577   0.39865   0.44334   1.000
    C26     C    0.74407   0.07722   0.55256   1.000
    O27     O    0.22454   0.45672   0.35874   1.000
    O28     O    0.38710   0.59968   0.87596   1.000
    O29     O    0.25640   0.15343   0.49021   1.000
    O30     O    0.12312   0.50625   0.87174   1.000
    O31     O    0.25896   0.17678   0.25979   1.000
    Ca32    Ca   0.24475   0.45511   0.11792   1.000
    O33     O    0.23020   0.68490   0.17506   1.000
    O34     O    0.77554   0.54321   0.64127   1.000
    O35     O    0.61302   0.40026   0.12405   1.000
    O36     O    0.74373   0.84649   0.50979   1.000
    O37     O    0.87698   0.49370   0.12827   1.000
    O38     O    0.74115   0.82314   0.74020   1.000
    O39     O    0.76987   0.31503   0.82495   1.000
loop_
    _geom_bond_atom_site_label_1
    _geom_bond_atom_site_label_2
    _geom_bond_distance
    _geom_bond_site_symmetry_2
    _ccdc_geom_bond_type
    Ca32   O33       2.39884      .   S
    Ca32   O31       2.41043      .   S
    O35    C24       1.27788      .   S
    O37    C24       1.27838      .   S
    O33    C14       1.26576      .   S
    C24    C19       1.49392      .   S
    H2     C11       1.08888      .   S
    O31    C12       1.24563      .   S
    C14    O27       1.28896      .   S
    C14    C9        1.49940      .   S
    H7     C22       1.08815      .   S
    C19    C22       1.39695      .   S
    C19    C25       1.39983      .   S
    C11    C9        1.39983      .   S
    C11    C17       1.39949      .   S
    C12    C17       1.48528  1_545   S
    C12    O29       1.32636      .   S
    H8     C25       1.08826      .   S
    C22    C26       1.40174      .   S
    C9     C16       1.40066      .   S
    C25    C18       1.40066      .   S
    H1     O29       1.01635      .   S
    C17    C13       1.40173      .   S
    O36    H5        1.01636      .   S
    O36    C21       1.32635      .   S
    C26    C21       1.48527  1_545   S
    C26    C20       1.39949      .   S
    C16    H4        1.08828      .   S
    C16    C10       1.39983      .   S
    C18    C20       1.39981      .   S
    C18    C23       1.49941      .   S
    C13    C10       1.39702      .   S
    C13    H3        1.08812      .   S
    C21    O38       1.24562      .   S
    O34    C23       1.28894      .   S
    C20    H6        1.08889      .   S
    C10    C15       1.49391      .   S
    C23    O39       1.26577      .   S
    O38    Ca0       2.41038      .   S
    C15    O30       1.27839      .   S
    C15    O28       1.27789      .   S
    O39    Ca0       2.39887      .   S
    O27    Ca32      2.44082      .   S
    O28    Ca32      2.50724  1_556   S
    O28    Ca0       2.42141      .   S
    O30    Ca32      2.58232  1_556   S
    O30    Ca0       2.42250  1_455   S
    O34    Ca0       2.44088      .   S
    O35    Ca32      2.42144      .   S
    O35    Ca0       2.50726  1_554   S
    O37    Ca32      2.42251  1_655   S
    O37    Ca0       2.58236  1_554   S
