# CIF file generated by openbabel 2.4.90, see http://openbabel.sf.net
data_I
_chemical_name_common ''
_cell_length_a 6.8215
_cell_length_b 9.31303
_cell_length_c 10.182
_cell_angle_alpha 67.1916
_cell_angle_beta 81.405
_cell_angle_gamma 73.3754
_space_group_name_H-M_alt 'P 1'
_space_group_name_Hall 'P 1'
loop_
    _symmetry_equiv_pos_as_xyz
    x,y,z
loop_
    _atom_site_label
    _atom_site_type_symbol
    _atom_site_fract_x
    _atom_site_fract_y
    _atom_site_fract_z
    _atom_site_occupancy
    N0      N    0.24741   0.78894   0.50000   1.000
    N1      N    0.75271   0.21099   0.50000   1.000
    Zr2     Zr   0.24475   0.45511   0.11792   1.000
    O3      O    0.07577   0.39891   0.21473   1.000
    O4      O    0.41778   0.38723   0.21421   1.000
    Zr5     Zr   0.75536   0.54482   0.88208   1.000
    O6      O    0.58234   0.61271   0.78580   1.000
    O7      O    0.92434   0.60103   0.78527   1.000
    O8      O    0.24671   0.55080   0.93293   1.000
    O9      O    0.24432   0.54428   0.22897   1.000
    O10     O    0.75340   0.44913   0.06707   1.000
    O11     O    0.75597   0.46278   0.76529   1.000
loop_
    _geom_bond_atom_site_label_1
    _geom_bond_atom_site_label_2
    _geom_bond_distance
    _geom_bond_site_symmetry_2
    _ccdc_geom_bond_type
    Zr2    O3        1.47650      .   S
    N1     O3        3.56492  1_655   S
    Zr2    O4        1.48063      .   S
    N1     O4        3.53845      .   S
    Zr5    O6        1.48061      .   S
    N0     O6        3.53844      .   S
    Zr5    O7        1.47652      .   S
    N0     O7        3.56493  1_455   S
    Zr2    O8        1.74357  1_554   S
    N0     O8        4.09517      .   S
    N0     O9        4.21033      .   S
    Zr2    O9        1.64125      .   S
    Zr5    O10       1.74357  1_556   S
    N1     O10       4.09516      .   S
    N1     O11       4.21356      .   S
    Zr5    O11       1.64287      .   S
