# CIF file generated by openbabel 2.4.90, see http://openbabel.sf.net
data_I
_chemical_name_common ''
_cell_length_a 6.8215
_cell_length_b 9.31303
_cell_length_c 10.182
_cell_angle_alpha 67.1916
_cell_angle_beta 81.405
_cell_angle_gamma 73.3754
_space_group_name_H-M_alt 'P 1'
_space_group_name_Hall 'P 1'
loop_
    _symmetry_equiv_pos_as_xyz
    x,y,z
loop_
    _atom_site_label
    _atom_site_type_symbol
    _atom_site_fract_x
    _atom_site_fract_y
    _atom_site_fract_z
    _atom_site_occupancy
    Zr0     Zr   0.24475   0.45511   0.11792   1.000
    Zr1     Zr   0.75536   0.54482   0.88208   1.000
    N2      N    0.24741   0.78894   0.50000   1.000
    O3      O    0.24103   0.62243   0.36916   1.000
    O4      O    0.28167   0.65817   0.74847   1.000
    O5      O    0.40932   0.68059   0.68951   1.000
    O6      O    0.21568   0.63481   0.74741   1.000
    O7      O    0.09333   0.65724   0.68845   1.000
    O8      O    0.24964   0.55244   0.34443   1.000
    O9      O    0.24244   0.67947   0.32324   1.000
    N10     N    0.75271   0.21099   0.50000   1.000
    O11     O    0.75908   0.37750   0.63084   1.000
    O12     O    0.59080   0.31934   0.31049   1.000
    O13     O    0.71845   0.34176   0.25153   1.000
    O14     O    0.90679   0.34270   0.31155   1.000
    O15     O    0.78444   0.36512   0.25259   1.000
    O16     O    0.75048   0.44748   0.65557   1.000
    O17     O    0.75766   0.32046   0.67676   1.000
loop_
    _geom_bond_atom_site_label_1
    _geom_bond_atom_site_label_2
    _geom_bond_distance
    _geom_bond_site_symmetry_2
    _ccdc_geom_bond_type
    N2     O3        2.41637      .   S
    Zr0    O3        3.46713      .   S
    N2     O4        2.35871      .   S
    Zr0    O4        3.50205  1_554   S
    N2     O5        2.10979      .   S
    Zr1    O5        2.96122      .   S
    N2     O6        2.38009      .   S
    Zr0    O6        3.49439  1_554   S
    N2     O7        2.14508      .   S
    Zr1    O7        2.95303  1_655   S
    N2     O8        3.16840      .   S
    Zr0    O8        2.79332      .   S
    N2     O9        2.39579      .   S
    Zr0    O9        3.47773      .   S
    N10    O11       2.41638      .   S
    Zr1    O11       3.46720      .   S
    N10    O12       2.10978      .   S
    Zr0    O12       2.96125      .   S
    N10    O13       2.35869      .   S
    Zr1    O13       3.50205  1_556   S
    N10    O14       2.14507      .   S
    Zr0    O14       2.95301  1_455   S
    N10    O15       2.38009      .   S
    Zr1    O15       3.49439  1_556   S
    N10    O16       3.16841      .   S
    Zr1    O16       2.79339      .   S
    N10    O17       2.39582      .   S
    Zr1    O17       3.47778      .   S
