# CIF file generated by openbabel 2.4.90, see http://openbabel.sf.net
data_I
_chemical_name_common ''
_cell_length_a 6.8215
_cell_length_b 9.31303
_cell_length_c 10.182
_cell_angle_alpha 67.1916
_cell_angle_beta 81.405
_cell_angle_gamma 73.3754
_space_group_name_H-M_alt 'P 1'
_space_group_name_Hall 'P 1'
loop_
    _symmetry_equiv_pos_as_xyz
    x,y,z
loop_
    _atom_site_label
    _atom_site_type_symbol
    _atom_site_fract_x
    _atom_site_fract_y
    _atom_site_fract_z
    _atom_site_occupancy
    N0      N    0.24741   0.78894   0.50000   1.000
    N1      N    0.75271   0.21099   0.50000   1.000
    Zr2     Zr   0.24475   0.45511   0.11792   1.000
    O3      O    0.24289   0.53877   0.24354   1.000
    O4      O    0.26321   0.55664   0.93319   1.000
    O5      O    0.07577   0.39891   0.21473   1.000
    O6      O    0.41778   0.38723   0.21421   1.000
    O7      O    0.23021   0.54496   0.93267   1.000
    O8      O    0.24719   0.50378   0.23117   1.000
    O9      O    0.24360   0.56729   0.22058   1.000
    Zr10    Zr   0.75536   0.54482   0.88208   1.000
    O11     O    0.58234   0.61271   0.78580   1.000
    O12     O    0.73690   0.44329   0.06681   1.000
    O13     O    0.92434   0.60103   0.78527   1.000
    O14     O    0.75722   0.46116   0.75646   1.000
    O15     O    0.75292   0.49615   0.76883   1.000
    O16     O    0.75651   0.43264   0.77942   1.000
    O17     O    0.76990   0.45497   0.06734   1.000
loop_
    _geom_bond_atom_site_label_1
    _geom_bond_atom_site_label_2
    _geom_bond_distance
    _geom_bond_site_symmetry_2
    _ccdc_geom_bond_type
    Zr2    O3        1.73356      .   S
    N0     O3        4.12665      .   S
    Zr2    O4        1.75102  1_554   S
    N0     O4        4.09362      .   S
    Zr2    O5        1.47650      .   S
    N1     O5        3.56492  1_655   S
    Zr2    O6        1.48063      .   S
    N1     O6        3.53845      .   S
    Zr2    O7        1.74720  1_554   S
    N0     O7        4.10144      .   S
    Zr2    O8        1.39666      .   S
    N0     O8        4.49264      .   S
    Zr2    O9        1.73887      .   S
    N0     O9        4.11842      .   S
    Zr10   O11       1.48061      .   S
    N0     O11       3.53844      .   S
    Zr10   O12       1.75103  1_556   S
    N1     O12       4.09361      .   S
    Zr10   O13       1.47652      .   S
    N0     O13       3.56493  1_455   S
    Zr10   O14       1.73360      .   S
    N1     O14       4.12671      .   S
    Zr10   O15       1.39670      .   S
    N1     O15       4.49269      .   S
    Zr10   O16       1.73889      .   S
    N1     O16       4.11848      .   S
    Zr10   O17       1.74719  1_556   S
    N1     O17       4.10143      .   S
