# CIF file generated by openbabel 2.4.90, see http://openbabel.sf.net
data_I
_chemical_name_common ''
_cell_length_a 14.07
_cell_length_b 15.811
_cell_length_c 26.043
_cell_angle_alpha 90.002
_cell_angle_beta 89.998
_cell_angle_gamma 93.291
_space_group_name_H-M_alt 'P 1'
_space_group_name_Hall 'P 1'
loop_
    _symmetry_equiv_pos_as_xyz
    x,y,z
loop_
    _atom_site_label
    _atom_site_type_symbol
    _atom_site_fract_x
    _atom_site_fract_y
    _atom_site_fract_z
    _atom_site_occupancy
    Lv0     Lv   0.88921   0.65774   0.78763   1.000
    Lv1     Lv   0.88921   0.15705   0.71236   1.000
    Lv2     Lv   0.11022   0.34228   0.21235   1.000
    Lv3     Lv   0.63346   0.31403   0.21947   1.000
    Lv4     Lv   0.63347   0.81404   0.28049   1.000
    Lv5     Lv   0.36650   0.68587   0.78050   1.000
    Lv6     Lv   0.11022   0.84229   0.28762   1.000
    Lv7     Lv   0.36650   0.18598   0.71948   1.000
