# CIF file generated by openbabel 2.4.90, see http://openbabel.sf.net
data_I
_chemical_name_common ''
_cell_length_a 18.087
_cell_length_b 18.087
_cell_length_c 17.825
_cell_angle_alpha 90
_cell_angle_beta 89.999
_cell_angle_gamma 119.981
_space_group_name_H-M_alt 'P 1'
_space_group_name_Hall 'P 1'
loop_
    _symmetry_equiv_pos_as_xyz
    x,y,z
loop_
    _atom_site_label
    _atom_site_type_symbol
    _atom_site_fract_x
    _atom_site_fract_y
    _atom_site_fract_z
    _atom_site_occupancy
    C0      C    0.33069   0.41040   0.60768   1.000
    C1      C    0.33069   0.91041   0.60760   1.000
    C2      C    0.83070   0.41040   0.60768   1.000
    C3      C    0.16931   0.07978   0.10772   1.000
    C4      C    0.16932   0.57979   0.10770   1.000
    C5      C    0.66932   0.07978   0.10771   1.000
    C6      C    0.66932   0.57979   0.10771   1.000
    C7      C    0.41042   0.33070   0.10769   1.000
    C8      C    0.41042   0.83071   0.10769   1.000
    C9      C    0.91042   0.33070   0.10769   1.000
    C10     C    0.91043   0.83071   0.10769   1.000
    O11     O    0.09012   0.48793   0.90959   1.000
    O12     O    0.09012   0.98793   0.90959   1.000
    O13     O    0.59013   0.48793   0.90959   1.000
    O14     O    0.59013   0.98793   0.90959   1.000
    O15     O    0.12969   0.41145   0.83754   1.000
    C16     C    0.42012   0.08947   0.10772   1.000
    C17     C    0.42011   0.58948   0.10772   1.000
    C18     C    0.92012   0.08947   0.10772   1.000
    C19     C    0.92012   0.58948   0.10772   1.000
    C20     C    0.16931   0.07977   0.39227   1.000
    C21     C    0.16931   0.57978   0.39227   1.000
    C22     C    0.66932   0.07977   0.39227   1.000
    C23     C    0.66932   0.57978   0.39227   1.000
    C24     C    0.41041   0.33069   0.39229   1.000
    C25     C    0.41041   0.83070   0.39229   1.000
    C26     C    0.91042   0.33069   0.39229   1.000
    C27     C    0.91042   0.83070   0.39229   1.000
    C28     C    0.42011   0.08947   0.39226   1.000
    C29     C    0.42011   0.58948   0.39226   1.000
    C30     C    0.92012   0.08947   0.39226   1.000
    C31     C    0.92012   0.58947   0.39226   1.000
    C32     C    0.08947   0.42011   0.89225   1.000
    C33     C    0.08947   0.92012   0.89220   1.000
    C34     C    0.58948   0.42012   0.89220   1.000
    C35     C    0.58948   0.92012   0.89220   1.000
    C36     C    0.07976   0.16931   0.89226   1.000
    C37     C    0.07977   0.66932   0.89226   1.000
    C38     C    0.57977   0.16931   0.89226   1.000
    C39     C    0.57977   0.66932   0.89226   1.000
    C40     C    0.33069   0.41040   0.89229   1.000
    C41     C    0.33069   0.91041   0.89229   1.000
    C42     C    0.83070   0.41040   0.89229   1.000
    C43     C    0.83070   0.91041   0.89229   1.000
    C44     C    0.08947   0.42011   0.60771   1.000
    C45     C    0.08947   0.92012   0.60771   1.000
    C46     C    0.58948   0.42011   0.60771   1.000
    C47     C    0.58948   0.92012   0.60771   1.000
    C48     C    0.07977   0.16931   0.60770   1.000
    C49     C    0.07977   0.66932   0.60770   1.000
    C50     C    0.57978   0.16931   0.60770   1.000
    C51     C    0.57978   0.66932   0.60770   1.000
    C52     C    0.83070   0.91041   0.60760   1.000
    O53     O    0.10218   0.01199   0.09030   1.000
    O54     O    0.10218   0.51200   0.09036   1.000
    O55     O    0.60219   0.01199   0.09036   1.000
    O56     O    0.60219   0.51200   0.09036   1.000
    O57     O    0.21818   0.08840   0.16240   1.000
    O58     O    0.21818   0.58841   0.16242   1.000
    O59     O    0.71819   0.08840   0.16242   1.000
    O60     O    0.71819   0.58841   0.16242   1.000
    O61     O    0.40992   0.39795   0.09040   1.000
    O62     O    0.40992   0.89796   0.09040   1.000
    O63     O    0.90993   0.39795   0.09040   1.000
    O64     O    0.90993   0.89796   0.09040   1.000
    O65     O    0.37010   0.28181   0.16230   1.000
    O66     O    0.37010   0.78182   0.16237   1.000
    O67     O    0.87011   0.28182   0.16237   1.000
    O68     O    0.87011   0.78182   0.16237   1.000
    O69     O    0.48793   0.09014   0.09038   1.000
    O70     O    0.48793   0.59014   0.09038   1.000
    O71     O    0.98794   0.09014   0.09038   1.000
    O72     O    0.98794   0.59015   0.09038   1.000
    O73     O    0.41146   0.12971   0.16242   1.000
    O74     O    0.41145   0.62972   0.16242   1.000
    O75     O    0.91147   0.12971   0.16242   1.000
    O76     O    0.91146   0.62972   0.16242   1.000
    O77     O    0.10218   0.01198   0.40960   1.000
    O78     O    0.10218   0.51199   0.40960   1.000
    O79     O    0.60219   0.01198   0.40960   1.000
    O80     O    0.60218   0.51199   0.40960   1.000
    O81     O    0.21818   0.08839   0.33756   1.000
    O82     O    0.21818   0.58840   0.33756   1.000
    O83     O    0.71819   0.08839   0.33756   1.000
    O84     O    0.71819   0.58840   0.33756   1.000
    O85     O    0.40992   0.39795   0.40958   1.000
    O86     O    0.40992   0.89796   0.40958   1.000
    O87     O    0.90992   0.39794   0.40958   1.000
    O88     O    0.90992   0.89795   0.40958   1.000
    O89     O    0.37009   0.28181   0.33762   1.000
    O90     O    0.37009   0.78182   0.33762   1.000
    O91     O    0.87010   0.28181   0.33762   1.000
    O92     O    0.87010   0.78182   0.33762   1.000
    O93     O    0.48793   0.09014   0.40960   1.000
    O94     O    0.48793   0.59014   0.40960   1.000
    O95     O    0.98794   0.09013   0.40960   1.000
    O96     O    0.98794   0.59014   0.40960   1.000
    O97     O    0.41146   0.12971   0.33756   1.000
    O98     O    0.41145   0.62972   0.33756   1.000
    O99     O    0.91146   0.12971   0.33756   1.000
    O100    O    0.91146   0.62971   0.33756   1.000
    O101    O    0.12969   0.91145   0.83754   1.000
    O102    O    0.62970   0.41145   0.83754   1.000
    O103    O    0.62970   0.91146   0.83754   1.000
    O104    O    0.01198   0.10216   0.90961   1.000
    O105    O    0.01198   0.60217   0.90961   1.000
    O106    O    0.51199   0.10217   0.90961   1.000
    O107    O    0.51199   0.60217   0.90961   1.000
    O108    O    0.08839   0.21817   0.83755   1.000
    O109    O    0.08839   0.71818   0.83754   1.000
    O110    O    0.58840   0.21817   0.83750   1.000
    O111    O    0.58840   0.71817   0.83754   1.000
    O112    O    0.39795   0.40992   0.90956   1.000
    O113    O    0.39795   0.90993   0.90956   1.000
    O114    O    0.89796   0.40992   0.90956   1.000
    O115    O    0.89796   0.90992   0.90956   1.000
    O116    O    0.28181   0.37010   0.83760   1.000
    O117    O    0.28182   0.87011   0.83760   1.000
    O118    O    0.78182   0.37010   0.83760   1.000
    O119    O    0.78182   0.87011   0.83760   1.000
    O120    O    0.09012   0.48792   0.59038   1.000
    O121    O    0.09012   0.98793   0.59038   1.000
    O122    O    0.59013   0.48792   0.59038   1.000
    O123    O    0.59013   0.98793   0.59038   1.000
    O124    O    0.12969   0.41144   0.66242   1.000
    O125    O    0.12969   0.91145   0.66242   1.000
    O126    O    0.62970   0.41144   0.66242   1.000
    O127    O    0.62970   0.91145   0.66242   1.000
    O128    O    0.01198   0.10217   0.59035   1.000
    O129    O    0.01198   0.60217   0.59035   1.000
    O130    O    0.51199   0.10217   0.59035   1.000
    O131    O    0.51199   0.60218   0.59035   1.000
    O132    O    0.08839   0.21817   0.66242   1.000
    O133    O    0.08839   0.71817   0.66242   1.000
    O134    O    0.58840   0.21817   0.66242   1.000
    O135    O    0.58840   0.71817   0.66242   1.000
    O136    O    0.39795   0.40992   0.59040   1.000
    O137    O    0.39796   0.90993   0.59040   1.000
    O138    O    0.89796   0.40992   0.59040   1.000
    O139    O    0.89796   0.90993   0.59040   1.000
    O140    O    0.28181   0.37010   0.66236   1.000
    O141    O    0.28182   0.87011   0.66236   1.000
    O142    O    0.78182   0.37010   0.66236   1.000
    O143    O    0.78182   0.87011   0.66236   1.000
loop_
    _geom_bond_atom_site_label_1
    _geom_bond_atom_site_label_2
    _geom_bond_distance
    _geom_bond_site_symmetry_2
    _ccdc_geom_bond_type
    O53    C3        1.25945      .   S
    O54    C4        1.25911      .   S
    O55    C5        1.25915      .   S
    O56    C6        1.25917      .   S
    O69    C16       1.25919      .   S
    O70    C17       1.25919      .   S
    O71    C18       1.25920      .   S
    O72    C19       1.25918      .   S
    O61    C7        1.25920      .   S
    O62    C8        1.25918      .   S
    O63    C9        1.25920      .   S
    O64    C10       1.25918      .   S
    C7     O65       1.27149      .   S
    C8     O66       1.27244      .   S
    C9     O67       1.27244      .   S
    C10    O68       1.27244      .   S
    C4     O58       1.27246      .   S
    C6     O60       1.27233      .   S
    C5     O59       1.27233      .   S
    C3     O57       1.27192      .   S
    C19    O76       1.27232      .   S
    C18    O75       1.27232      .   S
    C17    O74       1.27232      .   S
    C16    O73       1.27232      .   S
    O99    C30       1.27232      .   S
    O97    C28       1.27231      .   S
    O81    C20       1.27232      .   S
    O82    C21       1.27232      .   S
    O83    C22       1.27233      .   S
    O84    C23       1.27233      .   S
    O98    C29       1.27232      .   S
    O100   C31       1.27232      .   S
    O89    C24       1.27233      .   S
    O90    C25       1.27233      .   S
    O91    C26       1.27232      .   S
    O92    C27       1.27233      .   S
    C28    O93       1.25921      .   S
    C29    O94       1.25921      .   S
    C30    O95       1.25921      .   S
    C31    O96       1.25921      .   S
    C23    O80       1.25907      .   S
    C22    O79       1.25906      .   S
    C20    O77       1.25907      .   S
    C21    O78       1.25907      .   S
    C27    O88       1.25919      .   S
    C26    O87       1.25918      .   S
    C25    O86       1.25919      .   S
    C24    O85       1.25919      .   S
    O131   C51       1.25920      .   S
    O128   C48       1.25920      .   S
    O129   C49       1.25920      .   S
    O130   C50       1.25920      .   S
    O120   C44       1.25920      .   S
    O121   C45       1.25921      .   S
    O122   C46       1.25919      .   S
    O123   C47       1.25920      .   S
    O136   C0        1.25920      .   S
    O139   C52       1.25885      .   S
    O137   C1        1.25885      .   S
    O138   C2        1.25919      .   S
    C1     O141      1.27341      .   S
    C52    O143      1.27341      .   S
    C2     O142      1.27231      .   S
    C0     O140      1.27232      .   S
    C51    O135      1.27232      .   S
    C50    O134      1.27232      .   S
    C49    O133      1.27232      .   S
    C48    O132      1.27232      .   S
    C44    O124      1.27232      .   S
    C45    O125      1.27232      .   S
    C46    O126      1.27232      .   S
    C47    O127      1.27232      .   S
    O110   C38       1.27288      .   S
    O109   C37       1.27232      .   S
    O15    C32       1.27230      .   S
    O101   C33       1.27162      .   S
    O102   C34       1.27162      .   S
    O103   C35       1.27162      .   S
    O111   C39       1.27234      .   S
    O108   C36       1.27220      .   S
    O116   C40       1.27246      .   S
    O117   C41       1.27245      .   S
    O118   C42       1.27245      .   S
    O119   C43       1.27245      .   S
    C35    O14       1.25945      .   S
    C34    O13       1.25946      .   S
    C33    O12       1.25945      .   S
    C32    O11       1.25925      .   S
    C39    O107      1.25919      .   S
    C38    O106      1.25920      .   S
    C37    O105      1.25919      .   S
    C36    O104      1.25921      .   S
    C43    O115      1.25915      .   S
    C40    O112      1.25915      .   S
    C41    O113      1.25914      .   S
    C42    O114      1.25915      .   S
