# CIF file generated by openbabel 2.4.90, see http://openbabel.sf.net
data_I
_chemical_name_common ''
_cell_length_a 18.087
_cell_length_b 18.087
_cell_length_c 17.825
_cell_angle_alpha 90
_cell_angle_beta 89.999
_cell_angle_gamma 119.981
_space_group_name_H-M_alt 'P 1'
_space_group_name_Hall 'P 1'
loop_
    _symmetry_equiv_pos_as_xyz
    x,y,z
loop_
    _atom_site_label
    _atom_site_type_symbol
    _atom_site_fract_x
    _atom_site_fract_y
    _atom_site_fract_z
    _atom_site_occupancy
    C0      C    0.33069   0.41040   0.60768   1.000
    C1      C    0.33069   0.91041   0.60760   1.000
    C2      C    0.83070   0.41040   0.60768   1.000
    C3      C    0.16931   0.07978   0.10772   1.000
    C4      C    0.16932   0.57979   0.10770   1.000
    C5      C    0.66932   0.07978   0.10771   1.000
    C6      C    0.66932   0.57979   0.10771   1.000
    C7      C    0.41042   0.33070   0.10769   1.000
    C8      C    0.41042   0.83071   0.10769   1.000
    C9      C    0.91042   0.33070   0.10769   1.000
    C10     C    0.91043   0.83071   0.10769   1.000
    C11     C    0.42012   0.08947   0.10772   1.000
    C12     C    0.42011   0.58948   0.10772   1.000
    C13     C    0.92012   0.08947   0.10772   1.000
    C14     C    0.92012   0.58948   0.10772   1.000
    C15     C    0.16931   0.07977   0.39227   1.000
    C16     C    0.16931   0.57978   0.39227   1.000
    C17     C    0.66932   0.07977   0.39227   1.000
    C18     C    0.66932   0.57978   0.39227   1.000
    C19     C    0.41041   0.33069   0.39229   1.000
    C20     C    0.41041   0.83070   0.39229   1.000
    C21     C    0.91042   0.33069   0.39229   1.000
    C22     C    0.91042   0.83070   0.39229   1.000
    C23     C    0.42011   0.08947   0.39226   1.000
    C24     C    0.42011   0.58948   0.39226   1.000
    C25     C    0.92012   0.08947   0.39226   1.000
    C26     C    0.92012   0.58947   0.39226   1.000
    C27     C    0.08947   0.42011   0.89225   1.000
    C28     C    0.08947   0.92012   0.89220   1.000
    C29     C    0.58948   0.42012   0.89220   1.000
    C30     C    0.58948   0.92012   0.89220   1.000
    C31     C    0.07976   0.16931   0.89226   1.000
    C32     C    0.07977   0.66932   0.89226   1.000
    C33     C    0.57977   0.16931   0.89226   1.000
    C34     C    0.57977   0.66932   0.89226   1.000
    C35     C    0.33069   0.41040   0.89229   1.000
    C36     C    0.33069   0.91041   0.89229   1.000
    C37     C    0.83070   0.41040   0.89229   1.000
    C38     C    0.83070   0.91041   0.89229   1.000
    C39     C    0.08947   0.42011   0.60771   1.000
    C40     C    0.08947   0.92012   0.60771   1.000
    C41     C    0.58948   0.42011   0.60771   1.000
    C42     C    0.58948   0.92012   0.60771   1.000
    C43     C    0.07977   0.16931   0.60770   1.000
    C44     C    0.07977   0.66932   0.60770   1.000
    C45     C    0.57978   0.16931   0.60770   1.000
    C46     C    0.57978   0.66932   0.60770   1.000
    C47     C    0.83070   0.91041   0.60760   1.000
