# CIF file generated by openbabel 2.4.90, see http://openbabel.sf.net
data_I
_chemical_name_common ''
_cell_length_a 18.087
_cell_length_b 18.087
_cell_length_c 17.825
_cell_angle_alpha 90
_cell_angle_beta 89.999
_cell_angle_gamma 119.981
_space_group_name_H-M_alt 'P 1'
_space_group_name_Hall 'P 1'
loop_
    _symmetry_equiv_pos_as_xyz
    x,y,z
loop_
    _atom_site_label
    _atom_site_type_symbol
    _atom_site_fract_x
    _atom_site_fract_y
    _atom_site_fract_z
    _atom_site_occupancy
    Zr0     Zr   0.33330   0.16672   0.24999   1.000
    Zr1     Zr   0.33330   0.66673   0.24999   1.000
    Zr2     Zr   0.83331   0.16672   0.24999   1.000
    Zr3     Zr   0.83331   0.66673   0.24999   1.000
    Zr4     Zr   0.16671   0.33329   0.74998   1.000
    Zr5     Zr   0.16672   0.83330   0.74998   1.000
    Zr6     Zr   0.66672   0.33330   0.74998   1.000
    Zr7     Zr   0.66672   0.83330   0.74998   1.000
    Zr8     Zr   0.00003   0.00002   0.99999   1.000
    Zr9     Zr   0.00002   0.50002   0.99998   1.000
    Zr10    Zr   0.50003   0.00002   0.99999   1.000
    Zr11    Zr   0.50002   0.50002   0.99998   1.000
    Zr12    Zr   0.00002   0.00002   0.49999   1.000
    Zr13    Zr   0.00002   0.50003   0.49999   1.000
    Zr14    Zr   0.50003   0.00002   0.49999   1.000
    Zr15    Zr   0.50003   0.50003   0.49999   1.000
    N16     N    0.49989   0.80788   0.50000   1.000
    O17     O    0.49995   0.86996   0.49999   1.000
    N18     N    0.19201   0.19201   0.49999   1.000
    O19     O    0.12999   0.12999   0.49999   1.000
    N20     N    0.80788   0.49989   0.00001   1.000
    O21     O    0.86996   0.49995   0.99999   1.000
    N22     N    0.69201   0.19201   0.99999   1.000
    O23     O    0.63000   0.12999   0.99999   1.000
    N24     N    0.99861   0.30787   0.50000   1.000
    O25     O    0.99931   0.36995   0.49999   1.000
    N26     N    0.19201   0.69202   0.99999   1.000
    O27     O    0.12998   0.62999   0.99998   1.000
    N28     N    0.19200   0.19202   1.00000   1.000
    O29     O    0.12999   0.12999   1.00000   1.000
    N30     N    0.30787   0.49990   0.99884   1.000
    O31     O    0.36995   0.49995   0.99940   1.000
    N32     N    0.30788   0.99862   0.49997   1.000
    O33     O    0.36996   0.99931   0.49998   1.000
    N34     N    0.99862   0.80788   0.50001   1.000
    O35     O    0.99931   0.86996   0.49999   1.000
    N36     N    0.80789   0.99862   0.99999   1.000
    O37     O    0.86996   0.99931   0.99999   1.000
    N38     N    0.30788   0.49990   0.49997   1.000
    O39     O    0.36995   0.49995   0.49998   1.000
    N40     N    0.49989   0.80789   0.99996   1.000
    O41     O    0.49995   0.86996   0.99998   1.000
    N42     N    0.19201   0.69201   0.49998   1.000
    O43     O    0.12998   0.62999   0.49998   1.000
    N44     N    0.30788   0.99862   0.00001   1.000
    O45     O    0.36996   0.99931   1.00000   1.000
    N46     N    0.69202   0.69201   0.99996   1.000
    O47     O    0.62999   0.62999   0.99997   1.000
    N48     N    0.49989   0.30787   0.50001   1.000
    O49     O    0.49995   0.36995   0.49999   1.000
    N50     N    0.69202   0.69201   0.49999   1.000
    O51     O    0.62999   0.62999   0.49999   1.000
    N52     N    0.69202   0.19201   0.49991   1.000
    O53     O    0.62999   0.12999   0.49995   1.000
    N54     N    0.80788   0.99862   0.49997   1.000
    O55     O    0.86996   0.99930   0.49998   1.000
    N56     N    0.80788   0.49989   0.49997   1.000
    O57     O    0.86996   0.49995   0.49998   1.000
    C58     C    0.16323   0.06006   0.12014   1.000
    O59     O    0.17543   0.10778   0.08082   1.000
    O60     O    0.21948   0.09381   0.16317   1.000
    O61     O    0.10716   0.03303   0.08264   1.000
    C62     C    0.66323   0.56006   0.12016   1.000
    O63     O    0.67545   0.60779   0.08082   1.000
    O64     O    0.60717   0.53304   0.08267   1.000
    O65     O    0.71949   0.59382   0.16318   1.000
    C66     C    0.56005   0.66322   0.87980   1.000
    O67     O    0.53303   0.60716   0.91730   1.000
    O68     O    0.59381   0.71948   0.83678   1.000
    O69     O    0.60778   0.67543   0.91912   1.000
    C70     C    0.60310   0.43983   0.62017   1.000
    O71     O    0.56758   0.39211   0.58083   1.000
    O72     O    0.62566   0.40610   0.66319   1.000
    O73     O    0.57409   0.46690   0.58268   1.000
    C74     C    0.66323   0.56005   0.37981   1.000
    O75     O    0.67544   0.60778   0.41915   1.000
    O76     O    0.60717   0.53303   0.41730   1.000
    O77     O    0.71949   0.59381   0.33679   1.000
    C78     C    0.89682   0.33682   0.12015   1.000
    O79     O    0.87426   0.28055   0.16317   1.000
    O80     O    0.92589   0.39291   0.08267   1.000
    C81     C    0.39681   0.33682   0.12013   1.000
    O82     O    0.37425   0.28054   0.16314   1.000
    O83     O    0.42589   0.39290   0.08266   1.000
    C84     C    0.93984   0.10311   0.12017   1.000
    O85     O    0.89212   0.06727   0.08083   1.000
    O86     O    0.96691   0.07409   0.08268   1.000
    O87     O    0.90612   0.12566   0.16319   1.000
    C88     C    0.39681   0.83683   0.12015   1.000
    O89     O    0.43228   0.82456   0.08081   1.000
    O90     O    0.37426   0.78055   0.16317   1.000
    O91     O    0.42589   0.89291   0.08267   1.000
    C92     C    0.89682   0.83683   0.12015   1.000
    O93     O    0.87426   0.78055   0.16317   1.000
    O94     O    0.92590   0.89291   0.08267   1.000
    C95     C    0.43984   0.10311   0.12017   1.000
    O96     O    0.39212   0.06727   0.08084   1.000
    O97     O    0.46691   0.07409   0.08268   1.000
    O98     O    0.40611   0.12566   0.16319   1.000
    C99     C    0.43983   0.60311   0.12017   1.000
    O100    O    0.39211   0.56759   0.08055   1.000
    O101    O    0.46690   0.57410   0.08268   1.000
    O102    O    0.40610   0.62567   0.16319   1.000
    C103    C    0.93984   0.60311   0.12017   1.000
    O104    O    0.89212   0.56759   0.08084   1.000
    O105    O    0.96691   0.57410   0.08268   1.000
    O106    O    0.90611   0.62567   0.16319   1.000
    C107    C    0.16322   0.56005   0.37981   1.000
    O108    O    0.17543   0.60778   0.41915   1.000
    O109    O    0.10716   0.53303   0.41730   1.000
    O110    O    0.21948   0.59381   0.33679   1.000
    C111    C    0.16322   0.06005   0.37981   1.000
    O112    O    0.17543   0.10777   0.41915   1.000
    O113    O    0.10716   0.03302   0.41730   1.000
    O114    O    0.21948   0.09380   0.33679   1.000
    C115    C    0.89682   0.83682   0.37983   1.000
    O116    O    0.93197   0.82455   0.41917   1.000
    O117    O    0.92589   0.89290   0.41731   1.000
    O118    O    0.87426   0.78055   0.33682   1.000
    C119    C    0.16323   0.56007   0.12016   1.000
    O120    O    0.17543   0.60779   0.08083   1.000
    O121    O    0.10716   0.53304   0.08267   1.000
    O122    O    0.21948   0.59382   0.16318   1.000
    C123    C    0.39681   0.33682   0.37983   1.000
    O124    O    0.43228   0.32454   0.41917   1.000
    O125    O    0.42589   0.39290   0.41731   1.000
    O126    O    0.37425   0.28054   0.33682   1.000
    C127    C    0.10309   0.93983   0.87978   1.000
    O128    O    0.12565   0.90611   0.83677   1.000
    O129    O    0.07408   0.96691   0.91728   1.000
    C130    C    0.89682   0.33682   0.37983   1.000
    O131    O    0.93196   0.32454   0.41917   1.000
    O132    O    0.87426   0.28054   0.33682   1.000
    O133    O    0.92589   0.39290   0.41731   1.000
    C134    C    0.39681   0.83683   0.37983   1.000
    O135    O    0.43228   0.82455   0.41917   1.000
    O136    O    0.42589   0.89291   0.41731   1.000
    O137    O    0.37425   0.78055   0.33682   1.000
    C138    C    0.33682   0.39681   0.87982   1.000
    O139    O    0.32454   0.43228   0.91887   1.000
    O140    O    0.39290   0.42589   0.91729   1.000
    O141    O    0.28054   0.37425   0.83680   1.000
    C142    C    0.93984   0.10310   0.37981   1.000
    O143    O    0.89212   0.06726   0.41914   1.000
    O144    O    0.96691   0.07409   0.41730   1.000
    O145    O    0.90611   0.12566   0.33679   1.000
    C146    C    0.66323   0.06006   0.12016   1.000
    O147    O    0.67544   0.10778   0.08083   1.000
    O148    O    0.60717   0.03303   0.08267   1.000
    O149    O    0.71949   0.09381   0.16318   1.000
    C150    C    0.43983   0.10310   0.37981   1.000
    O151    O    0.39211   0.06726   0.41914   1.000
    O152    O    0.46691   0.07409   0.41730   1.000
    O153    O    0.40611   0.12566   0.33679   1.000
    C154    C    0.33682   0.89682   0.87982   1.000
    O155    O    0.32454   0.93196   0.91916   1.000
    O156    O    0.28054   0.87426   0.83680   1.000
    O157    O    0.39290   0.92590   0.91730   1.000
    C158    C    0.83682   0.39681   0.87982   1.000
    O159    O    0.82455   0.43228   0.91916   1.000
    O160    O    0.89290   0.42589   0.91729   1.000
    O161    O    0.78055   0.37425   0.83680   1.000
    C162    C    0.83682   0.89681   0.87982   1.000
    O163    O    0.82455   0.93196   0.91915   1.000
    O164    O    0.78055   0.87426   0.83680   1.000
    O165    O    0.89291   0.92589   0.91730   1.000
    C166    C    0.60310   0.43983   0.87978   1.000
    O167    O    0.57409   0.46690   0.91728   1.000
    O168    O    0.62566   0.40610   0.83677   1.000
    C169    C    0.10309   0.43983   0.87979   1.000
    O170    O    0.12565   0.40610   0.83678   1.000
    O171    O    0.07408   0.46690   0.91729   1.000
    C172    C    0.56006   0.16322   0.62016   1.000
    O173    O    0.60778   0.17543   0.58080   1.000
    O174    O    0.59381   0.21947   0.66318   1.000
    O175    O    0.53303   0.10716   0.58266   1.000
    C176    C    0.10309   0.43982   0.62017   1.000
    O177    O    0.07408   0.46690   0.58268   1.000
    O178    O    0.12565   0.40610   0.66319   1.000
    O179    O    0.06726   0.39211   0.58083   1.000
    C180    C    0.10310   0.93983   0.62017   1.000
    O181    O    0.12565   0.90610   0.66319   1.000
    O182    O    0.07408   0.96690   0.58268   1.000
    O183    O    0.06726   0.89212   0.58083   1.000
    C184    C    0.60310   0.93983   0.62017   1.000
    O185    O    0.62566   0.90611   0.66319   1.000
    O186    O    0.57409   0.96691   0.58268   1.000
    O187    O    0.56759   0.89212   0.58083   1.000
    C188    C    0.33682   0.39681   0.62015   1.000
    O189    O    0.28054   0.37425   0.66316   1.000
    O190    O    0.39290   0.42589   0.58267   1.000
    O191    O    0.32454   0.43228   0.58080   1.000
    C192    C    0.33682   0.89682   0.62012   1.000
    O193    O    0.39291   0.92590   0.58266   1.000
    O194    O    0.28054   0.87426   0.66315   1.000
    O195    O    0.32455   0.93196   0.58078   1.000
    C196    C    0.06005   0.66322   0.87980   1.000
    O197    O    0.03302   0.60716   0.91730   1.000
    O198    O    0.09380   0.71948   0.83678   1.000
    O199    O    0.10777   0.67544   0.91914   1.000
    C200    C    0.56005   0.16322   0.87979   1.000
    O201    O    0.53303   0.10716   0.91729   1.000
    O202    O    0.59381   0.21947   0.83676   1.000
    O203    O    0.60778   0.17543   0.91913   1.000
    C204    C    0.66323   0.06005   0.37981   1.000
    O205    O    0.60717   0.03303   0.41730   1.000
    O206    O    0.67544   0.10777   0.41913   1.000
    O207    O    0.71949   0.09380   0.33679   1.000
    C208    C    0.83683   0.89681   0.62012   1.000
    O209    O    0.89291   0.92589   0.58266   1.000
    O210    O    0.78055   0.87426   0.66315   1.000
    O211    O    0.82455   0.93196   0.58078   1.000
    C212    C    0.43983   0.60311   0.37981   1.000
    O213    O    0.46690   0.57410   0.41730   1.000
    O214    O    0.40610   0.62567   0.33679   1.000
    O215    O    0.39211   0.56759   0.41914   1.000
    C216    C    0.56006   0.66322   0.62016   1.000
    O217    O    0.53303   0.60716   0.58266   1.000
    O218    O    0.59381   0.71948   0.66318   1.000
    O219    O    0.60778   0.67543   0.58082   1.000
    C220    C    0.60310   0.93984   0.87978   1.000
    O221    O    0.56759   0.89212   0.91911   1.000
    O222    O    0.57409   0.96691   0.91728   1.000
    O223    O    0.62566   0.90611   0.83677   1.000
    C224    C    0.06005   0.16321   0.87981   1.000
    O225    O    0.03302   0.10715   0.91730   1.000
    O226    O    0.10777   0.17543   0.91915   1.000
    O227    O    0.09380   0.21947   0.83679   1.000
    C228    C    0.93984   0.60311   0.37981   1.000
    O229    O    0.90611   0.62566   0.33679   1.000
    O230    O    0.96691   0.57410   0.41730   1.000
    O231    O    0.89212   0.56759   0.41914   1.000
    C232    C    0.06005   0.66322   0.62016   1.000
    O233    O    0.10777   0.67544   0.58082   1.000
    O234    O    0.09380   0.71948   0.66318   1.000
    O235    O    0.03302   0.60716   0.58266   1.000
    C236    C    0.06005   0.16321   0.62016   1.000
    O237    O    0.09380   0.21947   0.66318   1.000
    O238    O    0.03302   0.10715   0.58266   1.000
    O239    O    0.10777   0.17543   0.58082   1.000
    C240    C    0.83683   0.39681   0.62015   1.000
    O241    O    0.89291   0.42589   0.58267   1.000
    O242    O    0.82455   0.43228   0.58080   1.000
    O243    O    0.78055   0.37425   0.66316   1.000
loop_
    _geom_bond_atom_site_label_1
    _geom_bond_atom_site_label_2
    _geom_bond_distance
    _geom_bond_site_symmetry_2
    _ccdc_geom_bond_type
    N16    O17       1.12224      .   S
    Zr14   O17       2.35173  1_545   S
    N18    O19       1.12210      .   S
    Zr12   O19       2.35137      .   S
    N20    O21       1.12223  1_554   S
    Zr9    O21       2.35166  1_455   S
    N22    O23       1.12208      .   S
    Zr10   O23       2.35135      .   S
    N24    O25       1.11664      .   S
    Zr13   O25       2.34623  1_455   S
    N26    O27       1.12215      .   S
    Zr9    O27       2.35143      .   S
    N28    O29       1.12207      .   S
    Zr8    O29       2.35135      .   S
    N30    O31       1.12233      .   S
    Zr11   O31       2.35193      .   S
    N32    O33       1.11663      .   S
    Zr14   O33       2.34621  1_545   S
    N34    O35       1.11657      .   S
    Zr12   O35       2.34604  1_445   S
    N36    O37       1.11659      .   S
    Zr8    O37       2.34604  1_445   S
    N38    O39       1.12230      .   S
    Zr15   O39       2.35192      .   S
    N40    O41       1.12224      .   S
    Zr10   O41       2.35175  1_545   S
    N42    O43       1.12210      .   S
    Zr13   O43       2.35136      .   S
    N44    O45       1.11665  1_554   S
    Zr10   O45       2.34625  1_545   S
    N46    O47       1.12215      .   S
    Zr11   O47       2.35143      .   S
    N48    O49       1.12231      .   S
    Zr15   O49       2.35194      .   S
    N50    O51       1.12210      .   S
    Zr15   O51       2.35137      .   S
    N52    O53       1.12211      .   S
    Zr14   O53       2.35138      .   S
    N54    O55       1.11656      .   S
    Zr12   O55       2.34602  1_445   S
    N56    O57       1.12224      .   S
    Zr13   O57       2.35172  1_455   S
    C58    O59       1.04623      .   S
    N28    O59       2.00759  1_556   S
    C58    O60       1.17281      .   S
    Zr0    O60       2.37887      .   S
    C58    O61       1.10385      .   S
    Zr8    O61       2.26408  1_556   S
    C62    O63       1.04643      .   S
    N46    O63       2.00785  1_556   S
    C62    O64       1.10389      .   S
    Zr11   O64       2.26457  1_556   S
    C62    O65       1.17273      .   S
    Zr3    O65       2.37865      .   S
    C66    O67       1.10382      .   S
    Zr11   O67       2.26433      .   S
    C66    O68       1.17274      .   S
    Zr7    O68       2.37865      .   S
    C66    O69       1.04627      .   S
    N46    O69       2.00781      .   S
    C70    O71       1.04649      .   S
    N48    O71       2.00792      .   S
    C70    O72       1.17268      .   S
    Zr6    O72       2.37838      .   S
    C70    O73       1.10391      .   S
    Zr15   O73       2.26452      .   S
    C74    O75       1.04642      .   S
    N50    O75       2.00772      .   S
    C74    O76       1.10380      .   S
    Zr15   O76       2.26446      .   S
    C74    O77       1.17269      .   S
    Zr3    O77       2.37862      .   S
    C78    O79       1.17275      .   S
    Zr2    O79       2.37869      .   S
    C78    O80       1.10396      .   S
    Zr9    O80       2.26443  1_456   S
    C81    O82       1.17268      .   S
    Zr0    O82       2.37902      .   S
    C81    O83       1.10383      .   S
    Zr11   O83       2.26433  1_556   S
    C84    O85       1.04774      .   S
    N36    O85       2.01222  1_566   S
    C84    O86       1.10388      .   S
    Zr8    O86       2.26446  1_456   S
    C84    O87       1.17268      .   S
    Zr2    O87       2.37840      .   S
    C88    O89       1.04647      .   S
    N40    O89       2.00794  1_556   S
    C88    O90       1.17275      .   S
    Zr1    O90       2.37868      .   S
    C88    O91       1.10391      .   S
    Zr10   O91       2.26434  1_546   S
    C92    O93       1.17275      .   S
    Zr3    O93       2.37868      .   S
    C92    O94       1.10391      .   S
    Zr8    O94       2.26432  1_446   S
    C95    O96       1.04768      .   S
    N44    O96       2.01202  1_565   S
    C95    O97       1.10392      .   S
    Zr10   O97       2.26458  1_556   S
    C95    O98       1.17268      .   S
    Zr0    O98       2.37840      .   S
    C99    O100      1.05000      .   S
    N30    O100      2.01925  1_556   S
    C99    O101      1.10395      .   S
    Zr11   O101      2.26467  1_556   S
    C99    O102      1.17268      .   S
    Zr1    O102      2.37839      .   S
    C103   O104      1.04651      .   S
    N20    O104      2.00799      .   S
    C103   O105      1.10389      .   S
    Zr9    O105      2.26454  1_456   S
    C103   O106      1.17268      .   S
    Zr3    O106      2.37841      .   S
    C107   O108      1.04642      .   S
    N42    O108      2.00772      .   S
    C107   O109      1.10379      .   S
    Zr13   O109      2.26445      .   S
    C107   O110      1.17269      .   S
    Zr1    O110      2.37863      .   S
    C111   O112      1.04643      .   S
    N18    O112      2.00774      .   S
    C111   O113      1.10379      .   S
    Zr12   O113      2.26446      .   S
    C111   O114      1.17269      .   S
    Zr0    O114      2.37862      .   S
    C115   O116      1.04225      .   S
    N34    O116      1.99592      .   S
    C115   O117      1.10391      .   S
    Zr12   O117      2.26433  1_445   S
    C115   O118      1.17273      .   S
    Zr3    O118      2.37870      .   S
    C119   O120      1.04639      .   S
    N26    O120      2.00769  1_556   S
    C119   O121      1.10386      .   S
    Zr9    O121      2.26454  1_556   S
    C119   O122      1.17275      .   S
    Zr1    O122      2.37869      .   S
    C123   O124      1.04640      .   S
    N48    O124      2.00777      .   S
    C123   O125      1.10396      .   S
    Zr15   O125      2.26447      .   S
    C123   O126      1.17273      .   S
    Zr0    O126      2.37870      .   S
    C127   O128      1.17261      .   S
    Zr5    O128      2.37832      .   S
    C127   O129      1.10400      .   S
    Zr8    O129      2.26457  1_545   S
    C130   O131      1.04221      .   S
    N24    O131      1.99580      .   S
    C130   O132      1.17273      .   S
    Zr2    O132      2.37870      .   S
    C130   O133      1.10395      .   S
    Zr13   O133      2.26444  1_455   S
    C134   O135      1.04638      .   S
    N16    O135      2.00769      .   S
    C134   O136      1.10391      .   S
    Zr14   O136      2.26435  1_545   S
    C134   O137      1.17274      .   S
    Zr1    O137      2.37871      .   S
    C138   O139      1.04298      .   S
    N30    O139      1.99672      .   S
    C138   O140      1.10394      .   S
    Zr11   O140      2.26447      .   S
    C138   O141      1.17275      .   S
    Zr4    O141      2.37872      .   S
    C142   O143      1.04765      .   S
    N54    O143      2.01195  1_565   S
    C142   O144      1.10388      .   S
    Zr12   O144      2.26447  1_455   S
    C142   O145      1.17269      .   S
    Zr2    O145      2.37843      .   S
    C146   O147      1.04639      .   S
    N22    O147      2.00772  1_556   S
    C146   O148      1.10382      .   S
    Zr10   O148      2.26439  1_556   S
    C146   O149      1.17274      .   S
    Zr2    O149      2.37867      .   S
    C150   O151      1.04765      .   S
    N32    O151      2.01194  1_565   S
    C150   O152      1.10392      .   S
    Zr14   O152      2.26458      .   S
    C150   O153      1.17270      .   S
    Zr0    O153      2.37844      .   S
    C154   O155      1.04232      .   S
    N44    O155      1.99604  1_554   S
    C154   O156      1.17275      .   S
    Zr5    O156      2.37870      .   S
    C154   O157      1.10400      .   S
    Zr10   O157      2.26462  1_545   S
    C158   O159      1.04647      .   S
    N20    O159      2.00788  1_554   S
    C158   O160      1.10390      .   S
    Zr9    O160      2.26436  1_455   S
    C158   O161      1.17276      .   S
    Zr6    O161      2.37871      .   S
    C162   O163      1.04219      .   S
    N36    O163      1.99591      .   S
    C162   O164      1.17275      .   S
    Zr7    O164      2.37870      .   S
    C162   O165      1.10396      .   S
    Zr8    O165      2.26452  1_445   S
    C166   O167      1.10402      .   S
    Zr11   O167      2.26462      .   S
    C166   O168      1.17261      .   S
    Zr6    O168      2.37833      .   S
    C169   O170      1.17271      .   S
    Zr4    O170      2.37843      .   S
    C169   O171      1.10393      .   S
    Zr9    O171      2.26452      .   S
    C172   O173      1.04657      .   S
    N52    O173      2.00835      .   S
    C172   O174      1.17275      .   S
    Zr6    O174      2.37867      .   S
    C172   O175      1.10380      .   S
    Zr14   O175      2.26424      .   S
    C176   O177      1.10391      .   S
    Zr13   O177      2.26451      .   S
    C176   O178      1.17268      .   S
    Zr4    O178      2.37838      .   S
    C176   O179      1.04769      .   S
    N24    O179      2.01206  1_655   S
    C180   O181      1.17269      .   S
    Zr5    O181      2.37840      .   S
    C180   O182      1.10387      .   S
    Zr12   O182      2.26442  1_545   S
    C180   O183      1.04765      .   S
    N34    O183      2.01195  1_655   S
    C184   O185      1.17268      .   S
    Zr7    O185      2.37838      .   S
    C184   O186      1.10386      .   S
    Zr14   O186      2.26441  1_545   S
    C184   O187      1.04651      .   S
    N16    O187      2.00801      .   S
    C188   O189      1.17272      .   S
    Zr4    O189      2.37867      .   S
    C188   O190      1.10392      .   S
    Zr15   O190      2.26438      .   S
    C188   O191      1.04644      .   S
    N38    O191      2.00783      .   S
    C192   O193      1.10378      .   S
    Zr14   O193      2.26420  1_545   S
    C192   O194      1.17288      .   S
    Zr5    O194      2.37882      .   S
    C192   O195      1.04222      .   S
    N32    O195      1.99564      .   S
    C196   O197      1.10383      .   S
    Zr9    O197      2.26434      .   S
    C196   O198      1.17274      .   S
    Zr5    O198      2.37863      .   S
    C196   O199      1.04641      .   S
    N26    O199      2.00780      .   S
    C200   O201      1.10391      .   S
    Zr10   O201      2.26445      .   S
    C200   O202      1.17278      .   S
    Zr6    O202      2.37845      .   S
    C200   O203      1.04650      .   S
    N22    O203      2.00794      .   S
    C204   O205      1.10379      .   S
    Zr14   O205      2.26445      .   S
    C204   O206      1.04621      .   S
    N52    O206      2.00705      .   S
    C204   O207      1.17269      .   S
    Zr2    O207      2.37862      .   S
    C208   O209      1.10374      .   S
    Zr12   O209      2.26408  1_445   S
    C208   O210      1.17288      .   S
    Zr7    O210      2.37882      .   S
    C208   O211      1.04222      .   S
    N54    O211      1.99563      .   S
    C212   O213      1.10393      .   S
    Zr15   O213      2.26458      .   S
    C212   O214      1.17270      .   S
    Zr1    O214      2.37843      .   S
    C212   O215      1.04645      .   S
    N38    O215      2.00790      .   S
    C216   O217      1.10380      .   S
    Zr15   O217      2.26424      .   S
    C216   O218      1.17275      .   S
    Zr7    O218      2.37868      .   S
    C216   O219      1.04637      .   S
    N50    O219      2.00768      .   S
    C220   O221      1.04648      .   S
    N40    O221      2.00806      .   S
    C220   O222      1.10400      .   S
    Zr10   O222      2.26457  1_545   S
    C220   O223      1.17260      .   S
    Zr7    O223      2.37831      .   S
    C224   O225      1.10382      .   S
    Zr8    O225      2.26435      .   S
    C224   O226      1.04641      .   S
    N28    O226      2.00782      .   S
    C224   O227      1.17273      .   S
    Zr4    O227      2.37868      .   S
    C228   O229      1.17270      .   S
    Zr3    O229      2.37844      .   S
    C228   O230      1.10388      .   S
    Zr13   O230      2.26447  1_455   S
    C228   O231      1.04647      .   S
    N56    O231      2.00789      .   S
    C232   O233      1.04637      .   S
    N42    O233      2.00767      .   S
    C232   O234      1.17275      .   S
    Zr5    O234      2.37867      .   S
    C232   O235      1.10380      .   S
    Zr13   O235      2.26425      .   S
    C236   O237      1.17275      .   S
    Zr4    O237      2.37867      .   S
    C236   O238      1.10380      .   S
    Zr12   O238      2.26424      .   S
    C236   O239      1.04636      .   S
    N18    O239      2.00766      .   S
    C240   O241      1.10388      .   S
    Zr13   O241      2.26428  1_455   S
    C240   O242      1.04642      .   S
    N56    O242      2.00780      .   S
    C240   O243      1.17272      .   S
    Zr6    O243      2.37867      .   S
