# CIF file generated by openbabel 2.4.90, see http://openbabel.sf.net
data_I
_chemical_name_common ''
_cell_length_a 18.087
_cell_length_b 18.087
_cell_length_c 17.825
_cell_angle_alpha 90
_cell_angle_beta 89.999
_cell_angle_gamma 119.981
_space_group_name_H-M_alt 'P 1'
_space_group_name_Hall 'P 1'
loop_
    _symmetry_equiv_pos_as_xyz
    x,y,z
loop_
    _atom_site_label
    _atom_site_type_symbol
    _atom_site_fract_x
    _atom_site_fract_y
    _atom_site_fract_z
    _atom_site_occupancy
    Zr0     Zr   0.33330   0.16672   0.24999   1.000
    Zr1     Zr   0.33330   0.66673   0.24999   1.000
    Zr2     Zr   0.83331   0.16672   0.24999   1.000
    Zr3     Zr   0.83331   0.66673   0.24999   1.000
    Zr4     Zr   0.16671   0.33329   0.74998   1.000
    Zr5     Zr   0.16672   0.83330   0.74998   1.000
    Zr6     Zr   0.66672   0.33330   0.74998   1.000
    Zr7     Zr   0.66672   0.83330   0.74998   1.000
    Zr8     Zr   0.00003   0.00002   0.99999   1.000
    Zr9     Zr   0.00002   0.50002   0.99998   1.000
    Zr10    Zr   0.50003   0.00002   0.99999   1.000
    Zr11    Zr   0.50002   0.50002   0.99998   1.000
    Zr12    Zr   0.00002   0.00002   0.49999   1.000
    Zr13    Zr   0.00002   0.50003   0.49999   1.000
    Zr14    Zr   0.50003   0.00002   0.49999   1.000
    Zr15    Zr   0.50003   0.50003   0.49999   1.000
    Zr16    Zr   0.16931   0.07978   0.10772   1.000
    Zr17    Zr   0.16932   0.57979   0.10770   1.000
    Zr18    Zr   0.66932   0.07978   0.10771   1.000
    Zr19    Zr   0.66932   0.57979   0.10771   1.000
    Zr20    Zr   0.41042   0.33070   0.10769   1.000
    Zr21    Zr   0.41042   0.83071   0.10769   1.000
    Zr22    Zr   0.91042   0.33070   0.10769   1.000
    Zr23    Zr   0.91043   0.83071   0.10769   1.000
    Zr24    Zr   0.42012   0.08947   0.10772   1.000
    Zr25    Zr   0.42011   0.58948   0.10772   1.000
    Zr26    Zr   0.92012   0.08947   0.10772   1.000
    Zr27    Zr   0.92012   0.58948   0.10772   1.000
    Zr28    Zr   0.16931   0.07977   0.39227   1.000
    Zr29    Zr   0.16931   0.57978   0.39227   1.000
    Zr30    Zr   0.66932   0.07977   0.39227   1.000
    Zr31    Zr   0.66932   0.57978   0.39227   1.000
    Zr32    Zr   0.41041   0.33069   0.39229   1.000
    Zr33    Zr   0.41041   0.83070   0.39229   1.000
    Zr34    Zr   0.91042   0.33069   0.39229   1.000
    Zr35    Zr   0.91042   0.83070   0.39229   1.000
    Zr36    Zr   0.42011   0.08947   0.39226   1.000
    Zr37    Zr   0.42011   0.58948   0.39226   1.000
    Zr38    Zr   0.92012   0.08947   0.39226   1.000
    Zr39    Zr   0.92012   0.58947   0.39226   1.000
    Zr40    Zr   0.08947   0.42011   0.89225   1.000
    Zr41    Zr   0.08947   0.92012   0.89220   1.000
    Zr42    Zr   0.58948   0.42012   0.89220   1.000
    Zr43    Zr   0.58948   0.92012   0.89220   1.000
    Zr44    Zr   0.07976   0.16931   0.89226   1.000
    Zr45    Zr   0.07977   0.66932   0.89226   1.000
    Zr46    Zr   0.57977   0.16931   0.89226   1.000
    Zr47    Zr   0.57977   0.66932   0.89226   1.000
    Zr48    Zr   0.33069   0.41040   0.89229   1.000
    Zr49    Zr   0.33069   0.91041   0.89229   1.000
    Zr50    Zr   0.83070   0.41040   0.89229   1.000
    Zr51    Zr   0.83070   0.91041   0.89229   1.000
    Zr52    Zr   0.08947   0.42011   0.60771   1.000
    Zr53    Zr   0.08947   0.92012   0.60771   1.000
    Zr54    Zr   0.58948   0.42011   0.60771   1.000
    Zr55    Zr   0.58948   0.92012   0.60771   1.000
    Zr56    Zr   0.07977   0.16931   0.60770   1.000
    Zr57    Zr   0.07977   0.66932   0.60770   1.000
    Zr58    Zr   0.57978   0.16931   0.60770   1.000
    Zr59    Zr   0.57978   0.66932   0.60770   1.000
    Zr60    Zr   0.33069   0.41040   0.60768   1.000
    Zr61    Zr   0.33069   0.91041   0.60760   1.000
    Zr62    Zr   0.83070   0.41040   0.60768   1.000
    Zr63    Zr   0.83070   0.91041   0.60760   1.000
    Zr64    Zr   0.10218   0.01199   0.09030   1.000
    Zr65    Zr   0.10218   0.51200   0.09036   1.000
    Zr66    Zr   0.60219   0.01199   0.09036   1.000
    Zr67    Zr   0.60219   0.51200   0.09036   1.000
    Zr68    Zr   0.21818   0.08840   0.16240   1.000
    Zr69    Zr   0.21818   0.58841   0.16242   1.000
    Zr70    Zr   0.71819   0.08840   0.16242   1.000
    Zr71    Zr   0.71819   0.58841   0.16242   1.000
    Zr72    Zr   0.40992   0.39795   0.09040   1.000
    Zr73    Zr   0.40992   0.89796   0.09040   1.000
    Zr74    Zr   0.90993   0.39795   0.09040   1.000
    Zr75    Zr   0.90993   0.89796   0.09040   1.000
    Zr76    Zr   0.37010   0.28181   0.16230   1.000
    Zr77    Zr   0.37010   0.78182   0.16237   1.000
    Zr78    Zr   0.87011   0.28182   0.16237   1.000
    Zr79    Zr   0.87011   0.78182   0.16237   1.000
    Zr80    Zr   0.48793   0.09014   0.09038   1.000
    Zr81    Zr   0.48793   0.59014   0.09038   1.000
    Zr82    Zr   0.98794   0.09014   0.09038   1.000
    Zr83    Zr   0.98794   0.59015   0.09038   1.000
    Zr84    Zr   0.41146   0.12971   0.16242   1.000
    Zr85    Zr   0.41145   0.62972   0.16242   1.000
    Zr86    Zr   0.91147   0.12971   0.16242   1.000
    Zr87    Zr   0.91146   0.62972   0.16242   1.000
    Zr88    Zr   0.10218   0.01198   0.40960   1.000
    Zr89    Zr   0.10218   0.51199   0.40960   1.000
    Zr90    Zr   0.60219   0.01198   0.40960   1.000
    Zr91    Zr   0.60218   0.51199   0.40960   1.000
    Zr92    Zr   0.21818   0.08839   0.33756   1.000
    Zr93    Zr   0.21818   0.58840   0.33756   1.000
    Zr94    Zr   0.71819   0.08839   0.33756   1.000
    Zr95    Zr   0.71819   0.58840   0.33756   1.000
    Zr96    Zr   0.40992   0.39795   0.40958   1.000
    Zr97    Zr   0.40992   0.89796   0.40958   1.000
    Zr98    Zr   0.90992   0.39794   0.40958   1.000
    Zr99    Zr   0.90992   0.89795   0.40958   1.000
    Zr100   Zr   0.37009   0.28181   0.33762   1.000
    Zr101   Zr   0.37009   0.78182   0.33762   1.000
    Zr102   Zr   0.87010   0.28181   0.33762   1.000
    Zr103   Zr   0.87010   0.78182   0.33762   1.000
    Zr104   Zr   0.48793   0.09014   0.40960   1.000
    Zr105   Zr   0.48793   0.59014   0.40960   1.000
    Zr106   Zr   0.98794   0.09013   0.40960   1.000
    Zr107   Zr   0.98794   0.59014   0.40960   1.000
    Zr108   Zr   0.41146   0.12971   0.33756   1.000
    Zr109   Zr   0.41145   0.62972   0.33756   1.000
    Zr110   Zr   0.91146   0.12971   0.33756   1.000
    Zr111   Zr   0.91146   0.62971   0.33756   1.000
    Zr112   Zr   0.09012   0.48793   0.90959   1.000
    Zr113   Zr   0.09012   0.98793   0.90959   1.000
    Zr114   Zr   0.59013   0.48793   0.90959   1.000
    Zr115   Zr   0.59013   0.98793   0.90959   1.000
    Zr116   Zr   0.12969   0.41145   0.83754   1.000
    Zr117   Zr   0.12969   0.91145   0.83754   1.000
    Zr118   Zr   0.62970   0.41145   0.83754   1.000
    Zr119   Zr   0.62970   0.91146   0.83754   1.000
    Zr120   Zr   0.01198   0.10216   0.90961   1.000
    Zr121   Zr   0.01198   0.60217   0.90961   1.000
    Zr122   Zr   0.51199   0.10217   0.90961   1.000
    Zr123   Zr   0.51199   0.60217   0.90961   1.000
    Zr124   Zr   0.08839   0.21817   0.83755   1.000
    Zr125   Zr   0.08839   0.71818   0.83754   1.000
    Zr126   Zr   0.58840   0.21817   0.83750   1.000
    Zr127   Zr   0.58840   0.71817   0.83754   1.000
    Zr128   Zr   0.39795   0.40992   0.90956   1.000
    Zr129   Zr   0.39795   0.90993   0.90956   1.000
    Zr130   Zr   0.89796   0.40992   0.90956   1.000
    Zr131   Zr   0.89796   0.90992   0.90956   1.000
    Zr132   Zr   0.28181   0.37010   0.83760   1.000
    Zr133   Zr   0.28182   0.87011   0.83760   1.000
    Zr134   Zr   0.78182   0.37010   0.83760   1.000
    Zr135   Zr   0.78182   0.87011   0.83760   1.000
    Zr136   Zr   0.09012   0.48792   0.59038   1.000
    Zr137   Zr   0.09012   0.98793   0.59038   1.000
    Zr138   Zr   0.59013   0.48792   0.59038   1.000
    Zr139   Zr   0.59013   0.98793   0.59038   1.000
    Zr140   Zr   0.12969   0.41144   0.66242   1.000
    Zr141   Zr   0.12969   0.91145   0.66242   1.000
    Zr142   Zr   0.62970   0.41144   0.66242   1.000
    Zr143   Zr   0.62970   0.91145   0.66242   1.000
    Zr144   Zr   0.01198   0.10217   0.59035   1.000
    Zr145   Zr   0.01198   0.60217   0.59035   1.000
    Zr146   Zr   0.51199   0.10217   0.59035   1.000
    Zr147   Zr   0.51199   0.60218   0.59035   1.000
    Zr148   Zr   0.08839   0.21817   0.66242   1.000
    Zr149   Zr   0.08839   0.71817   0.66242   1.000
    Zr150   Zr   0.58840   0.21817   0.66242   1.000
    Zr151   Zr   0.58840   0.71817   0.66242   1.000
    Zr152   Zr   0.39795   0.40992   0.59040   1.000
    Zr153   Zr   0.39796   0.90993   0.59040   1.000
    Zr154   Zr   0.89796   0.40992   0.59040   1.000
    Zr155   Zr   0.89796   0.90993   0.59040   1.000
    Zr156   Zr   0.28181   0.37010   0.66236   1.000
    Zr157   Zr   0.28182   0.87011   0.66236   1.000
    Zr158   Zr   0.78182   0.37010   0.66236   1.000
    Zr159   Zr   0.78182   0.87011   0.66236   1.000
    O160    O    0.13575   0.04588   0.09901   1.000
    O161    O    0.05110   0.00600   0.04515   1.000
    O162    O    0.13575   0.54589   0.09903   1.000
    O163    O    0.05110   0.50601   0.04517   1.000
    O164    O    0.63576   0.04589   0.09903   1.000
    O165    O    0.55111   0.00601   0.04518   1.000
    O166    O    0.63576   0.54589   0.09903   1.000
    O167    O    0.55110   0.50601   0.04517   1.000
    O168    O    0.45402   0.08981   0.09905   1.000
    O169    O    0.49398   0.04508   0.04519   1.000
    O170    O    0.45402   0.58981   0.09905   1.000
    O171    O    0.49398   0.54508   0.04518   1.000
    O172    O    0.95403   0.08980   0.09905   1.000
    O173    O    0.99398   0.04508   0.04519   1.000
    O174    O    0.95403   0.58981   0.09905   1.000
    O175    O    0.99398   0.54508   0.04518   1.000
    O176    O    0.41017   0.36433   0.09904   1.000
    O177    O    0.45497   0.44899   0.04519   1.000
    O178    O    0.41017   0.86433   0.09904   1.000
    O179    O    0.45498   0.94899   0.04520   1.000
    O180    O    0.91018   0.36433   0.09904   1.000
    O181    O    0.95497   0.44899   0.04519   1.000
    O182    O    0.91018   0.86433   0.09904   1.000
    O183    O    0.95498   0.94899   0.04520   1.000
    O184    O    0.39026   0.30626   0.13500   1.000
    O185    O    0.39026   0.80627   0.13503   1.000
    O186    O    0.89027   0.30626   0.13503   1.000
    O187    O    0.89027   0.80626   0.13503   1.000
    O188    O    0.19375   0.58410   0.13506   1.000
    O189    O    0.69376   0.58410   0.13507   1.000
    O190    O    0.69376   0.08409   0.13507   1.000
    O191    O    0.19375   0.08409   0.13506   1.000
    O192    O    0.91579   0.60960   0.13507   1.000
    O193    O    0.91580   0.10959   0.13507   1.000
    O194    O    0.41578   0.60960   0.13507   1.000
    O195    O    0.41579   0.10959   0.13507   1.000
    O196    O    0.35170   0.22427   0.20615   1.000
    O197    O    0.35170   0.72428   0.20618   1.000
    O198    O    0.85171   0.22427   0.20618   1.000
    O199    O    0.85171   0.72427   0.20618   1.000
    O200    O    0.27574   0.12756   0.20620   1.000
    O201    O    0.87239   0.64822   0.20620   1.000
    O202    O    0.77575   0.12756   0.20620   1.000
    O203    O    0.87239   0.14822   0.20620   1.000
    O204    O    0.37238   0.64822   0.20620   1.000
    O205    O    0.37238   0.14822   0.20620   1.000
    O206    O    0.27574   0.62757   0.20620   1.000
    O207    O    0.77575   0.62757   0.20620   1.000
    O208    O    0.27574   0.62756   0.29378   1.000
    O209    O    0.37238   0.64822   0.29378   1.000
    O210    O    0.35170   0.72427   0.29380   1.000
    O211    O    0.37238   0.14821   0.29378   1.000
    O212    O    0.27574   0.12755   0.29378   1.000
    O213    O    0.35170   0.22426   0.29380   1.000
    O214    O    0.77575   0.62756   0.29378   1.000
    O215    O    0.87239   0.64822   0.29378   1.000
    O216    O    0.85171   0.72427   0.29380   1.000
    O217    O    0.87239   0.14821   0.29378   1.000
    O218    O    0.77575   0.12756   0.29378   1.000
    O219    O    0.85171   0.22427   0.29380   1.000
    O220    O    0.91579   0.10959   0.36491   1.000
    O221    O    0.41578   0.10959   0.36491   1.000
    O222    O    0.19375   0.08408   0.36492   1.000
    O223    O    0.19374   0.58409   0.36492   1.000
    O224    O    0.69375   0.08408   0.36492   1.000
    O225    O    0.69375   0.58409   0.36492   1.000
    O226    O    0.41578   0.60960   0.36491   1.000
    O227    O    0.91579   0.60959   0.36491   1.000
    O228    O    0.39025   0.30625   0.36496   1.000
    O229    O    0.39025   0.80626   0.36496   1.000
    O230    O    0.89026   0.30625   0.36496   1.000
    O231    O    0.89026   0.80626   0.36496   1.000
    O232    O    0.45402   0.08980   0.40093   1.000
    O233    O    0.45402   0.58981   0.40093   1.000
    O234    O    0.95403   0.08980   0.40093   1.000
    O235    O    0.95403   0.58981   0.40093   1.000
    O236    O    0.63575   0.54588   0.40093   1.000
    O237    O    0.63575   0.04588   0.40093   1.000
    O238    O    0.13574   0.04588   0.40093   1.000
    O239    O    0.13574   0.54588   0.40093   1.000
    O240    O    0.91017   0.86433   0.40094   1.000
    O241    O    0.91017   0.36432   0.40094   1.000
    O242    O    0.41017   0.86433   0.40094   1.000
    O243    O    0.41016   0.36432   0.40094   1.000
    O244    O    0.95497   0.94899   0.45478   1.000
    O245    O    0.95497   0.44899   0.45478   1.000
    O246    O    0.45497   0.94899   0.45478   1.000
    O247    O    0.45497   0.44899   0.45478   1.000
    O248    O    0.99398   0.54508   0.45480   1.000
    O249    O    0.49398   0.54508   0.45480   1.000
    O250    O    0.49398   0.04508   0.45480   1.000
    O251    O    0.55110   0.50601   0.45480   1.000
    O252    O    0.55111   0.00600   0.45480   1.000
    O253    O    0.05110   0.50601   0.45480   1.000
    O254    O    0.05110   0.00600   0.45480   1.000
    O255    O    0.99398   0.04508   0.45480   1.000
    O256    O    0.50601   0.55110   0.54517   1.000
    O257    O    0.54508   0.49398   0.54519   1.000
    O258    O    0.44899   0.45497   0.54519   1.000
    O259    O    0.50601   0.05109   0.54517   1.000
    O260    O    0.54508   0.99398   0.54519   1.000
    O261    O    0.44899   0.95498   0.54519   1.000
    O262    O    0.00600   0.55110   0.54517   1.000
    O263    O    0.04507   0.49397   0.54519   1.000
    O264    O    0.94899   0.45497   0.54519   1.000
    O265    O    0.00600   0.05109   0.54517   1.000
    O266    O    0.04507   0.99398   0.54519   1.000
    O267    O    0.94899   0.95497   0.54519   1.000
    O268    O    0.54588   0.63575   0.59903   1.000
    O269    O    0.04588   0.13574   0.59903   1.000
    O270    O    0.04587   0.63575   0.59903   1.000
    O271    O    0.54588   0.13574   0.59903   1.000
    O272    O    0.08979   0.45402   0.59904   1.000
    O273    O    0.08980   0.95402   0.59904   1.000
    O274    O    0.58980   0.45402   0.59904   1.000
    O275    O    0.58981   0.95403   0.59904   1.000
    O276    O    0.36432   0.41016   0.59904   1.000
    O277    O    0.86433   0.91017   0.59900   1.000
    O278    O    0.36432   0.91017   0.59900   1.000
    O279    O    0.86433   0.41016   0.59904   1.000
    O280    O    0.30625   0.89026   0.63498   1.000
    O281    O    0.80626   0.89026   0.63498   1.000
    O282    O    0.80626   0.39025   0.63502   1.000
    O283    O    0.30625   0.39025   0.63502   1.000
    O284    O    0.58409   0.69374   0.63506   1.000
    O285    O    0.58409   0.19374   0.63506   1.000
    O286    O    0.08408   0.69374   0.63506   1.000
    O287    O    0.08408   0.19374   0.63506   1.000
    O288    O    0.10958   0.41577   0.63507   1.000
    O289    O    0.10958   0.91578   0.63507   1.000
    O290    O    0.60959   0.41578   0.63507   1.000
    O291    O    0.60959   0.91578   0.63507   1.000
    O292    O    0.72427   0.35170   0.70617   1.000
    O293    O    0.22426   0.35170   0.70617   1.000
    O294    O    0.22427   0.85170   0.70617   1.000
    O295    O    0.72427   0.85170   0.70617   1.000
    O296    O    0.12755   0.77574   0.70620   1.000
    O297    O    0.62756   0.77574   0.70620   1.000
    O298    O    0.62756   0.27573   0.70620   1.000
    O299    O    0.14820   0.37237   0.70620   1.000
    O300    O    0.14821   0.87238   0.70620   1.000
    O301    O    0.64821   0.37237   0.70620   1.000
    O302    O    0.64821   0.87238   0.70620   1.000
    O303    O    0.12755   0.27573   0.70620   1.000
    O304    O    0.62756   0.27573   0.79374   1.000
    O305    O    0.64821   0.37238   0.79376   1.000
    O306    O    0.72427   0.35170   0.79379   1.000
    O307    O    0.64821   0.87238   0.79376   1.000
    O308    O    0.62756   0.77574   0.79376   1.000
    O309    O    0.72427   0.85171   0.79379   1.000
    O310    O    0.14820   0.37237   0.79376   1.000
    O311    O    0.12755   0.27573   0.79377   1.000
    O312    O    0.22426   0.35170   0.79379   1.000
    O313    O    0.12756   0.77574   0.79376   1.000
    O314    O    0.14821   0.87238   0.79376   1.000
    O315    O    0.22427   0.85171   0.79379   1.000
    O316    O    0.58409   0.19374   0.86488   1.000
    O317    O    0.08408   0.69375   0.86490   1.000
    O318    O    0.10958   0.41578   0.86489   1.000
    O319    O    0.10958   0.91579   0.86487   1.000
    O320    O    0.60959   0.41578   0.86487   1.000
    O321    O    0.60959   0.91579   0.86487   1.000
    O322    O    0.58409   0.69374   0.86490   1.000
    O323    O    0.08408   0.19374   0.86491   1.000
    O324    O    0.30625   0.39025   0.86495   1.000
    O325    O    0.30625   0.89026   0.86495   1.000
    O326    O    0.80626   0.39025   0.86495   1.000
    O327    O    0.80626   0.89026   0.86495   1.000
    O328    O    0.58980   0.95403   0.90090   1.000
    O329    O    0.58980   0.45402   0.90090   1.000
    O330    O    0.08980   0.95402   0.90090   1.000
    O331    O    0.08980   0.45402   0.90092   1.000
    O332    O    0.54588   0.63575   0.90094   1.000
    O333    O    0.54588   0.13574   0.90094   1.000
    O334    O    0.04587   0.63575   0.90094   1.000
    O335    O    0.04587   0.13574   0.90094   1.000
    O336    O    0.86433   0.91017   0.90092   1.000
    O337    O    0.36432   0.41016   0.90092   1.000
    O338    O    0.36432   0.91017   0.90092   1.000
    O339    O    0.86433   0.41016   0.90092   1.000
    O340    O    0.94899   0.95497   0.95478   1.000
    O341    O    0.94899   0.45497   0.95477   1.000
    O342    O    0.44899   0.95498   0.95478   1.000
    O343    O    0.44898   0.45497   0.95477   1.000
    O344    O    0.04507   0.99398   0.95479   1.000
    O345    O    0.04507   0.49398   0.95479   1.000
    O346    O    0.54508   0.99398   0.95479   1.000
    O347    O    0.54507   0.49398   0.95479   1.000
    O348    O    0.00600   0.55110   0.95479   1.000
    O349    O    0.50600   0.55110   0.95479   1.000
    O350    O    0.50601   0.05110   0.95480   1.000
    O351    O    0.00600   0.05109   0.95480   1.000
    N352    N    0.49989   0.80788   0.50000   1.000
    O353    O    0.49995   0.86996   0.49999   1.000
    O354    O    0.46775   0.81228   0.45851   1.000
    O355    O    0.53207   0.84440   0.54149   1.000
    N356    N    0.19201   0.19201   0.49999   1.000
    O357    O    0.15550   0.18764   0.54149   1.000
    O358    O    0.18764   0.15550   0.45848   1.000
    O359    O    0.12999   0.12999   0.49999   1.000
    N360    N    0.95921   0.77969   0.06150   1.000
    O361    O    0.94741   0.79818   0.07223   1.000
    N362    N    0.80788   0.49989   0.00001   1.000
    O363    O    0.84440   0.53207   0.04150   1.000
    O364    O    0.81228   0.46775   0.95851   1.000
    O365    O    0.86996   0.49995   0.99999   1.000
    N366    N    0.53759   0.31736   0.93839   1.000
    O367    O    0.55092   0.34913   0.92767   1.000
    N368    N    0.46217   0.27968   0.06152   1.000
    O369    O    0.44889   0.29818   0.07224   1.000
    N370    N    0.69201   0.19201   0.99999   1.000
    O371    O    0.63000   0.12999   0.99999   1.000
    O372    O    0.68765   0.15551   0.04149   1.000
    O373    O    0.65550   0.18765   0.95848   1.000
    N374    N    0.99861   0.30787   0.50000   1.000
    O375    O    0.96711   0.31227   0.45851   1.000
    O376    O    0.99931   0.36995   0.49999   1.000
    O377    O    0.03142   0.34439   0.54149   1.000
    N378    N    0.19201   0.69202   0.99999   1.000
    O379    O    0.18764   0.65551   0.04149   1.000
    O380    O    0.15549   0.68765   0.95848   1.000
    O381    O    0.12998   0.62999   0.99998   1.000
    N382    N    0.19200   0.19202   1.00000   1.000
    O383    O    0.18764   0.15551   0.04150   1.000
    O384    O    0.12999   0.12999   1.00000   1.000
    O385    O    0.15549   0.18765   0.95849   1.000
    N386    N    0.30787   0.49990   0.99884   1.000
    O387    O    0.34439   0.53207   0.04092   1.000
    O388    O    0.31227   0.46775   0.95792   1.000
    O389    O    0.36995   0.49995   0.99940   1.000
    N390    N    0.95920   0.27968   0.06150   1.000
    O391    O    0.94741   0.29818   0.07223   1.000
    N392    N    0.30788   0.99862   0.49997   1.000
    O393    O    0.36996   0.99931   0.49998   1.000
    O394    O    0.31227   0.96711   0.54144   1.000
    O395    O    0.34439   0.03143   0.45848   1.000
    N396    N    0.99862   0.80788   0.50001   1.000
    O397    O    0.96712   0.81228   0.45851   1.000
    O398    O    0.99931   0.86996   0.49999   1.000
    O399    O    0.03143   0.84440   0.54150   1.000
    N400    N    0.80789   0.99862   0.99999   1.000
    O401    O    0.84440   0.03143   0.04149   1.000
    O402    O    0.81228   0.96711   0.95849   1.000
    O403    O    0.86996   0.99931   0.99999   1.000
    N404    N    0.30788   0.49990   0.49997   1.000
    O405    O    0.36995   0.49995   0.49998   1.000
    O406    O    0.31227   0.46775   0.54146   1.000
    O407    O    0.34439   0.53207   0.45847   1.000
    N408    N    0.49989   0.80789   0.99996   1.000
    O409    O    0.46775   0.81228   0.04146   1.000
    O410    O    0.53207   0.84440   0.95845   1.000
    O411    O    0.49995   0.86996   0.99998   1.000
    N412    N    0.19201   0.69201   0.49998   1.000
    O413    O    0.12998   0.62999   0.49998   1.000
    O414    O    0.15550   0.68765   0.54149   1.000
    O415    O    0.18764   0.65550   0.45848   1.000
    N416    N    0.30788   0.99862   0.00001   1.000
    O417    O    0.34439   0.03143   0.04150   1.000
    O418    O    0.31227   0.96711   0.95851   1.000
    O419    O    0.36996   0.99931   1.00000   1.000
    N420    N    0.69202   0.69201   0.99996   1.000
    O421    O    0.68766   0.65551   0.04148   1.000
    O422    O    0.65551   0.68765   0.95845   1.000
    O423    O    0.62999   0.62999   0.99997   1.000
    N424    N    0.49989   0.30787   0.50001   1.000
    O425    O    0.49995   0.36995   0.49999   1.000
    O426    O    0.46775   0.31227   0.45851   1.000
    O427    O    0.53206   0.34439   0.54150   1.000
    N428    N    0.03759   0.81736   0.93839   1.000
    O429    O    0.05091   0.84914   0.92767   1.000
    N430    N    0.69202   0.69201   0.49999   1.000
    O431    O    0.68765   0.65550   0.45848   1.000
    O432    O    0.65550   0.68765   0.54149   1.000
    O433    O    0.62999   0.62999   0.49999   1.000
    N434    N    0.69202   0.19201   0.49991   1.000
    O435    O    0.68765   0.15550   0.45845   1.000
    O436    O    0.62999   0.12999   0.49995   1.000
    O437    O    0.65550   0.18765   0.54145   1.000
    N438    N    0.80788   0.99862   0.49997   1.000
    O439    O    0.84440   0.03143   0.45848   1.000
    O440    O    0.81228   0.96711   0.54144   1.000
    O441    O    0.86996   0.99930   0.49998   1.000
    N442    N    0.80788   0.49989   0.49997   1.000
    O443    O    0.86996   0.49995   0.49998   1.000
    O444    O    0.81228   0.46775   0.54146   1.000
    O445    O    0.84440   0.53207   0.45848   1.000
    N446    N    0.03758   0.31735   0.93839   1.000
    O447    O    0.05091   0.34913   0.92768   1.000
    N448    N    0.99999   0.86405   0.20000   1.000
    N449    N    0.50000   0.36405   0.30000   1.000
    N450    N    0.99999   0.36405   0.20000   1.000
loop_
    _geom_bond_atom_site_label_1
    _geom_bond_atom_site_label_2
    _geom_bond_distance
    _geom_bond_site_symmetry_2
    _ccdc_geom_bond_type
    Zr64   O160      0.62973      .   S
    Zr16   O160      0.62973      .   S
    Zr64   O161      1.18878      .   S
    Zr8    O161      1.18878  1_556   S
    Zr65   O162      0.62956      .   S
    Zr17   O162      0.62956      .   S
    Zr65   O163      1.18924      .   S
    Zr9    O163      1.18924  1_556   S
    Zr66   O164      0.62958      .   S
    Zr18   O164      0.62958      .   S
    Zr66   O165      1.18913      .   S
    Zr10   O165      1.18913  1_556   S
    Zr67   O166      0.62959      .   S
    Zr19   O166      0.62959      .   S
    Zr67   O167      1.18924      .   S
    Zr11   O167      1.18924  1_556   S
    Zr80   O168      0.62959      .   S
    Zr24   O168      0.62959      .   S
    Zr80   O169      1.18920      .   S
    Zr10   O169      1.18920  1_556   S
    Zr81   O170      0.62960      .   S
    Zr25   O170      0.62960      .   S
    Zr81   O171      1.18927      .   S
    Zr11   O171      1.18927  1_556   S
    Zr82   O172      0.62960      .   S
    Zr26   O172      0.62960      .   S
    Zr82   O173      1.18914      .   S
    Zr8    O173      1.18914  1_456   S
    Zr83   O174      0.62959      .   S
    Zr27   O174      0.62959      .   S
    Zr83   O175      1.18921      .   S
    Zr9    O175      1.18921  1_456   S
    Zr72   O176      0.62960      .   S
    Zr20   O176      0.62960      .   S
    Zr72   O177      1.18901      .   S
    Zr11   O177      1.18901  1_556   S
    Zr73   O178      0.62959      .   S
    Zr21   O178      0.62959      .   S
    Zr73   O179      1.18894      .   S
    Zr10   O179      1.18894  1_546   S
    Zr74   O180      0.62960      .   S
    Zr22   O180      0.62960      .   S
    Zr74   O181      1.18896      .   S
    Zr9    O181      1.18896  1_456   S
    Zr75   O182      0.62959      .   S
    Zr23   O182      0.62959      .   S
    Zr75   O183      1.18891      .   S
    Zr8    O183      1.18891  1_446   S
    Zr20   O184      0.63574      .   S
    Zr76   O184      0.63574      .   S
    Zr21   O185      0.63622      .   S
    Zr77   O185      0.63622      .   S
    Zr22   O186      0.63622      .   S
    Zr78   O186      0.63622      .   S
    Zr23   O187      0.63622      .   S
    Zr79   O187      0.63622      .   S
    Zr17   O188      0.63623      .   S
    Zr69   O188      0.63623      .   S
    Zr19   O189      0.63616      .   S
    Zr71   O189      0.63616      .   S
    Zr18   O190      0.63617      .   S
    Zr70   O190      0.63617      .   S
    Zr16   O191      0.63596      .   S
    Zr68   O191      0.63596      .   S
    Zr27   O192      0.63616      .   S
    Zr87   O192      0.63616      .   S
    Zr26   O193      0.63616      .   S
    Zr86   O193      0.63616      .   S
    Zr25   O194      0.63616      .   S
    Zr85   O194      0.63616      .   S
    Zr24   O195      0.63616      .   S
    Zr84   O195      0.63616      .   S
    Zr76   O196      1.20779      .   S
    Zr0    O196      1.20779      .   S
    Zr77   O197      1.20738      .   S
    Zr1    O197      1.20738      .   S
    Zr78   O198      1.20739      .   S
    Zr2    O198      1.20739      .   S
    Zr79   O199      1.20738      .   S
    Zr3    O199      1.20738      .   S
    Zr68   O200      1.20749      .   S
    Zr0    O200      1.20749      .   S
    Zr87   O201      1.20712      .   S
    Zr3    O201      1.20712      .   S
    Zr70   O202      1.20737      .   S
    Zr2    O202      1.20737      .   S
    Zr86   O203      1.20712      .   S
    Zr2    O203      1.20712      .   S
    Zr85   O204      1.20710      .   S
    Zr1    O204      1.20710      .   S
    Zr84   O205      1.20711      .   S
    Zr0    O205      1.20711      .   S
    Zr69   O206      1.20737      .   S
    Zr1    O206      1.20737      .   S
    Zr71   O207      1.20735      .   S
    Zr3    O207      1.20735      .   S
    Zr1    O208      1.20737      .   S
    Zr93   O208      1.20737      .   S
    Zr1    O209      1.20713      .   S
    Zr109  O209      1.20713      .   S
    Zr1    O210      1.20742      .   S
    Zr101  O210      1.20742      .   S
    Zr0    O211      1.20714      .   S
    Zr108  O211      1.20714      .   S
    Zr0    O212      1.20737      .   S
    Zr92   O212      1.20737      .   S
    Zr0    O213      1.20742      .   S
    Zr100  O213      1.20742      .   S
    Zr3    O214      1.20736      .   S
    Zr95   O214      1.20736      .   S
    Zr3    O215      1.20714      .   S
    Zr111  O215      1.20714      .   S
    Zr3    O216      1.20742      .   S
    Zr103  O216      1.20742      .   S
    Zr2    O217      1.20713      .   S
    Zr110  O217      1.20713      .   S
    Zr2    O218      1.20736      .   S
    Zr94   O218      1.20736      .   S
    Zr2    O219      1.20742      .   S
    Zr102  O219      1.20742      .   S
    Zr110  O220      0.63616      .   S
    Zr38   O220      0.63616      .   S
    Zr108  O221      0.63616      .   S
    Zr36   O221      0.63616      .   S
    Zr92   O222      0.63616      .   S
    Zr28   O222      0.63616      .   S
    Zr93   O223      0.63616      .   S
    Zr29   O223      0.63616      .   S
    Zr94   O224      0.63617      .   S
    Zr30   O224      0.63617      .   S
    Zr95   O225      0.63616      .   S
    Zr31   O225      0.63616      .   S
    Zr109  O226      0.63616      .   S
    Zr37   O226      0.63616      .   S
    Zr111  O227      0.63616      .   S
    Zr39   O227      0.63616      .   S
    Zr100  O228      0.63616      .   S
    Zr32   O228      0.63616      .   S
    Zr101  O229      0.63617      .   S
    Zr33   O229      0.63617      .   S
    Zr102  O230      0.63616      .   S
    Zr34   O230      0.63616      .   S
    Zr103  O231      0.63616      .   S
    Zr35   O231      0.63616      .   S
    Zr36   O232      0.62960      .   S
    Zr104  O232      0.62960      .   S
    Zr37   O233      0.62960      .   S
    Zr105  O233      0.62960      .   S
    Zr38   O234      0.62960      .   S
    Zr106  O234      0.62960      .   S
    Zr39   O235      0.62960      .   S
    Zr107  O235      0.62960      .   S
    Zr31   O236      0.62954      .   S
    Zr91   O236      0.62954      .   S
    Zr30   O237      0.62953      .   S
    Zr90   O237      0.62953      .   S
    Zr28   O238      0.62953      .   S
    Zr88   O238      0.62953      .   S
    Zr29   O239      0.62954      .   S
    Zr89   O239      0.62954      .   S
    Zr35   O240      0.62960      .   S
    Zr99   O240      0.62960      .   S
    Zr34   O241      0.62959      .   S
    Zr98   O241      0.62959      .   S
    Zr33   O242      0.62960      .   S
    Zr97   O242      0.62960      .   S
    Zr32   O243      0.62960      .   S
    Zr96   O243      0.62960      .   S
    Zr99   O244      1.18892      .   S
    Zr12   O244      1.18892  1_445   S
    Zr98   O245      1.18898      .   S
    Zr13   O245      1.18898  1_455   S
    Zr97   O246      1.18895      .   S
    Zr14   O246      1.18895  1_545   S
    Zr96   O247      1.18901      .   S
    Zr15   O247      1.18901      .   S
    Zr107  O248      1.18915      .   S
    Zr13   O248      1.18915  1_455   S
    Zr105  O249      1.18920      .   S
    Zr15   O249      1.18920      .   S
    Zr104  O250      1.18921      .   S
    Zr14   O250      1.18921      .   S
    Zr91   O251      1.18924      .   S
    Zr15   O251      1.18924      .   S
    Zr90   O252      1.18924      .   S
    Zr14   O252      1.18924      .   S
    Zr89   O253      1.18924      .   S
    Zr13   O253      1.18924      .   S
    Zr88   O254      1.18924      .   S
    Zr12   O254      1.18924      .   S
    Zr106  O255      1.18915      .   S
    Zr12   O255      1.18915  1_455   S
    Zr15   O256      1.18901      .   S
    Zr147  O256      1.18901      .   S
    Zr15   O257      1.18916      .   S
    Zr138  O257      1.18916      .   S
    Zr15   O258      1.18896      .   S
    Zr152  O258      1.18896      .   S
    Zr14   O259      1.18901      .   S
    Zr146  O259      1.18901      .   S
    Zr14   O260      1.18910  1_545   S
    Zr139  O260      1.18910      .   S
    Zr14   O261      1.18892  1_545   S
    Zr153  O261      1.18892      .   S
    Zr13   O262      1.18901      .   S
    Zr145  O262      1.18901      .   S
    Zr13   O263      1.18915      .   S
    Zr136  O263      1.18915      .   S
    Zr13   O264      1.18890  1_455   S
    Zr154  O264      1.18890      .   S
    Zr12   O265      1.18901      .   S
    Zr144  O265      1.18901      .   S
    Zr12   O266      1.18910  1_545   S
    Zr137  O266      1.18910      .   S
    Zr12   O267      1.18885  1_445   S
    Zr155  O267      1.18885      .   S
    Zr147  O268      0.62960      .   S
    Zr59   O268      0.62960      .   S
    Zr144  O269      0.62960      .   S
    Zr56   O269      0.62960      .   S
    Zr145  O270      0.62960      .   S
    Zr57   O270      0.62960      .   S
    Zr146  O271      0.62960      .   S
    Zr58   O271      0.62960      .   S
    Zr136  O272      0.62960      .   S
    Zr52   O272      0.62960      .   S
    Zr137  O273      0.62960      .   S
    Zr53   O273      0.62960      .   S
    Zr138  O274      0.62959      .   S
    Zr54   O274      0.62959      .   S
    Zr139  O275      0.62960      .   S
    Zr55   O275      0.62960      .   S
    Zr152  O276      0.62960      .   S
    Zr60   O276      0.62960      .   S
    Zr155  O277      0.62942      .   S
    Zr63   O277      0.62942      .   S
    Zr153  O278      0.62942      .   S
    Zr61   O278      0.62942      .   S
    Zr154  O279      0.62959      .   S
    Zr62   O279      0.62959      .   S
    Zr61   O280      0.63671      .   S
    Zr157  O280      0.63671      .   S
    Zr63   O281      0.63670      .   S
    Zr159  O281      0.63670      .   S
    Zr62   O282      0.63615      .   S
    Zr158  O282      0.63615      .   S
    Zr60   O283      0.63616      .   S
    Zr156  O283      0.63616      .   S
    Zr59   O284      0.63616      .   S
    Zr151  O284      0.63616      .   S
    Zr58   O285      0.63616      .   S
    Zr150  O285      0.63616      .   S
    Zr57   O286      0.63616      .   S
    Zr149  O286      0.63616      .   S
    Zr56   O287      0.63616      .   S
    Zr148  O287      0.63616      .   S
    Zr52   O288      0.63616      .   S
    Zr140  O288      0.63616      .   S
    Zr53   O289      0.63616      .   S
    Zr141  O289      0.63616      .   S
    Zr54   O290      0.63616      .   S
    Zr142  O290      0.63616      .   S
    Zr55   O291      0.63616      .   S
    Zr143  O291      0.63616      .   S
    Zr158  O292      1.20739      .   S
    Zr6    O292      1.20739      .   S
    Zr156  O293      1.20740      .   S
    Zr4    O293      1.20740      .   S
    Zr157  O294      1.20739      .   S
    Zr5    O294      1.20739      .   S
    Zr159  O295      1.20739      .   S
    Zr7    O295      1.20739      .   S
    Zr149  O296      1.20735      .   S
    Zr5    O296      1.20735      .   S
    Zr151  O297      1.20736      .   S
    Zr7    O297      1.20736      .   S
    Zr150  O298      1.20735      .   S
    Zr6    O298      1.20735      .   S
    Zr140  O299      1.20709      .   S
    Zr4    O299      1.20709      .   S
    Zr141  O300      1.20710      .   S
    Zr5    O300      1.20710      .   S
    Zr142  O301      1.20709      .   S
    Zr6    O301      1.20709      .   S
    Zr143  O302      1.20709      .   S
    Zr7    O302      1.20709      .   S
    Zr148  O303      1.20735      .   S
    Zr4    O303      1.20735      .   S
    Zr6    O304      1.20710      .   S
    Zr126  O304      1.20710      .   S
    Zr6    O305      1.20712      .   S
    Zr118  O305      1.20712      .   S
    Zr6    O306      1.20741      .   S
    Zr134  O306      1.20741      .   S
    Zr7    O307      1.20710      .   S
    Zr119  O307      1.20710      .   S
    Zr7    O308      1.20734      .   S
    Zr127  O308      1.20734      .   S
    Zr7    O309      1.20740      .   S
    Zr135  O309      1.20740      .   S
    Zr4    O310      1.20712      .   S
    Zr116  O310      1.20712      .   S
    Zr4    O311      1.20738      .   S
    Zr124  O311      1.20738      .   S
    Zr4    O312      1.20741      .   S
    Zr132  O312      1.20741      .   S
    Zr5    O313      1.20733      .   S
    Zr125  O313      1.20733      .   S
    Zr5    O314      1.20711      .   S
    Zr117  O314      1.20711      .   S
    Zr5    O315      1.20740      .   S
    Zr133  O315      1.20740      .   S
    Zr126  O316      0.63644      .   S
    Zr46   O316      0.63644      .   S
    Zr125  O317      0.63616      .   S
    Zr45   O317      0.63616      .   S
    Zr116  O318      0.63615      .   S
    Zr40   O318      0.63615      .   S
    Zr117  O319      0.63581      .   S
    Zr41   O319      0.63581      .   S
    Zr118  O320      0.63581      .   S
    Zr42   O320      0.63581      .   S
    Zr119  O321      0.63581      .   S
    Zr43   O321      0.63581      .   S
    Zr127  O322      0.63617      .   S
    Zr47   O322      0.63617      .   S
    Zr124  O323      0.63610      .   S
    Zr44   O323      0.63610      .   S
    Zr132  O324      0.63623      .   S
    Zr48   O324      0.63623      .   S
    Zr133  O325      0.63622      .   S
    Zr49   O325      0.63622      .   S
    Zr134  O326      0.63623      .   S
    Zr50   O326      0.63623      .   S
    Zr135  O327      0.63623      .   S
    Zr51   O327      0.63623      .   S
    Zr43   O328      0.62973      .   S
    Zr115  O328      0.62973      .   S
    Zr42   O329      0.62973      .   S
    Zr114  O329      0.62973      .   S
    Zr41   O330      0.62973      .   S
    Zr113  O330      0.62973      .   S
    Zr40   O331      0.62963      .   S
    Zr112  O331      0.62963      .   S
    Zr47   O332      0.62959      .   S
    Zr123  O332      0.62959      .   S
    Zr46   O333      0.62960      .   S
    Zr122  O333      0.62960      .   S
    Zr45   O334      0.62959      .   S
    Zr121  O334      0.62959      .   S
    Zr44   O335      0.62961      .   S
    Zr120  O335      0.62961      .   S
    Zr51   O336      0.62957      .   S
    Zr131  O336      0.62957      .   S
    Zr48   O337      0.62958      .   S
    Zr128  O337      0.62958      .   S
    Zr49   O338      0.62957      .   S
    Zr129  O338      0.62957      .   S
    Zr50   O339      0.62958      .   S
    Zr130  O339      0.62958      .   S
    Zr131  O340      1.18906      .   S
    Zr8    O340      1.18906  1_445   S
    Zr130  O341      1.18897      .   S
    Zr9    O341      1.18897  1_455   S
    Zr129  O342      1.18912      .   S
    Zr10   O342      1.18912  1_545   S
    Zr128  O343      1.18903      .   S
    Zr11   O343      1.18903      .   S
    Zr113  O344      1.18910      .   S
    Zr8    O344      1.18910  1_545   S
    Zr112  O345      1.18913      .   S
    Zr9    O345      1.18913      .   S
    Zr115  O346      1.18911      .   S
    Zr10   O346      1.18911  1_545   S
    Zr114  O347      1.18913      .   S
    Zr11   O347      1.18913      .   S
    Zr121  O348      1.18907      .   S
    Zr9    O348      1.18907      .   S
    Zr123  O349      1.18908      .   S
    Zr11   O349      1.18908      .   S
    Zr122  O350      1.18910      .   S
    Zr10   O350      1.18910      .   S
    Zr120  O351      1.18910      .   S
    Zr8    O351      1.18910      .   S
    N352   O353      1.12224      .   S
    Zr14   O353      2.35173  1_545   S
    N352   O354      0.96823      .   S
    Zr33   O354      1.71028      .   S
    N352   O355      0.96842      .   S
    Zr55   O355      1.71051      .   S
    N356   O357      0.96824      .   S
    Zr56   O357      1.71024      .   S
    N356   O358      0.96824      .   S
    Zr28   O358      1.71026      .   S
    N356   O359      1.12210      .   S
    Zr12   O359      2.35137      .   S
    N360   O361      0.51506      .   S
    Zr23   O361      1.25949      .   S
    N362   O363      0.96841      .   S
    Zr27   O363      1.71051      .   S
    N362   O364      0.96834  1_554   S
    Zr50   O364      1.71038      .   S
    N362   O365      1.12223  1_554   S
    Zr9    O365      2.35166  1_455   S
    N366   O367      0.53527      .   S
    Zr42   O367      1.28046      .   S
    N368   O369      0.53518      .   S
    Zr20   O369      1.28009      .   S
    N370   O371      1.12208      .   S
    Zr10   O371      2.35135      .   S
    N370   O372      0.96827  1_556   S
    Zr18   O372      1.71027      .   S
    N370   O373      0.96836      .   S
    Zr46   O373      1.71038      .   S
    N374   O375      0.96082      .   S
    Zr34   O375      1.70212      .   S
    N374   O376      1.11664      .   S
    Zr13   O376      2.34623  1_455   S
    N374   O377      0.97147  1_655   S
    Zr52   O377      1.71295      .   S
    N378   O379      0.96824  1_556   S
    Zr17   O379      1.71018      .   S
    N378   O380      0.96833      .   S
    Zr45   O380      1.71034      .   S
    N378   O381      1.12215      .   S
    Zr9    O381      2.35143      .   S
    N382   O383      0.96831  1_556   S
    Zr16   O383      1.71034      .   S
    N382   O384      1.12207      .   S
    Zr8    O384      2.35135      .   S
    N382   O385      0.96835      .   S
    Zr44   O385      1.71039      .   S
    N386   O387      0.97640  1_556   S
    Zr25   O387      1.71772      .   S
    N386   O388      0.96044      .   S
    Zr48   O388      1.70319      .   S
    N386   O389      1.12233      .   S
    Zr11   O389      2.35193      .   S
    N390   O391      0.51506      .   S
    Zr22   O391      1.25947      .   S
    N392   O393      1.11663      .   S
    Zr14   O393      2.34621  1_545   S
    N392   O394      0.96063      .   S
    Zr61   O394      1.70148      .   S
    N392   O395      0.97140  1_565   S
    Zr36   O395      1.71285      .   S
    N396   O397      0.96090      .   S
    Zr35   O397      1.70220      .   S
    N396   O398      1.11657      .   S
    Zr12   O398      2.34604  1_445   S
    N396   O399      0.97140  1_655   S
    Zr53   O399      1.71286      .   S
    N400   O401      0.97159  1_566   S
    Zr26   O401      1.71304      .   S
    N400   O402      0.96095      .   S
    Zr51   O402      1.70201      .   S
    N400   O403      1.11659      .   S
    Zr8    O403      2.34604  1_445   S
    N404   O405      1.12230      .   S
    Zr15   O405      2.35192      .   S
    N404   O406      0.96831      .   S
    Zr60   O406      1.71038      .   S
    N404   O407      0.96838      .   S
    Zr37   O407      1.71039      .   S
    N408   O409      0.96840  1_556   S
    Zr21   O409      1.71043      .   S
    N408   O410      0.96851      .   S
    Zr43   O410      1.71090      .   S
    N408   O411      1.12224      .   S
    Zr10   O411      2.35175  1_545   S
    N412   O413      1.12210      .   S
    Zr13   O413      2.35136      .   S
    N412   O414      0.96824      .   S
    Zr57   O414      1.71026      .   S
    N412   O415      0.96823      .   S
    Zr29   O415      1.71025      .   S
    N416   O417      0.97145  1_565   S
    Zr24   O417      1.71291      .   S
    N416   O418      0.96095  1_554   S
    Zr49   O418      1.70226      .   S
    N416   O419      1.11665  1_554   S
    Zr10   O419      2.34625  1_545   S
    N420   O421      0.96836  1_556   S
    Zr19   O421      1.71038      .   S
    N420   O422      0.96849      .   S
    Zr47   O422      1.71004      .   S
    N420   O423      1.12215      .   S
    Zr11   O423      2.35143      .   S
    N424   O425      1.12231      .   S
    Zr15   O425      2.35194      .   S
    N424   O426      0.96830      .   S
    Zr32   O426      1.71033      .   S
    N424   O427      0.96835      .   S
    Zr54   O427      1.71046      .   S
    N428   O429      0.53526      .   S
    Zr41   O429      1.28044      .   S
    N430   O431      0.96824      .   S
    Zr31   O431      1.71024      .   S
    N430   O432      0.96824      .   S
    Zr59   O432      1.71026      .   S
    N430   O433      1.12210      .   S
    Zr15   O433      2.35137      .   S
    N434   O435      0.96776      .   S
    Zr30   O435      1.70982      .   S
    N434   O436      1.12211      .   S
    Zr14   O436      2.35138      .   S
    N434   O437      0.96872      .   S
    Zr58   O437      1.71068      .   S
    N438   O439      0.97141  1_565   S
    Zr38   O439      1.71285      .   S
    N438   O440      0.96062      .   S
    Zr63   O440      1.70147      .   S
    N438   O441      1.11656      .   S
    Zr12   O441      2.34602  1_445   S
    N442   O443      1.12224      .   S
    Zr13   O443      2.35172  1_455   S
    N442   O444      0.96831      .   S
    Zr62   O444      1.71036      .   S
    N442   O445      0.96834      .   S
    Zr39   O445      1.71043      .   S
    N446   O447      0.53519      .   S
    Zr40   O447      1.28012      .   S
