# CIF file generated by openbabel 2.4.90, see http://openbabel.sf.net
data_I
_chemical_name_common ''
_cell_length_a 18.087
_cell_length_b 18.087
_cell_length_c 17.825
_cell_angle_alpha 90
_cell_angle_beta 89.999
_cell_angle_gamma 119.981
_space_group_name_H-M_alt 'P 1'
_space_group_name_Hall 'P 1'
loop_
    _symmetry_equiv_pos_as_xyz
    x,y,z
loop_
    _atom_site_label
    _atom_site_type_symbol
    _atom_site_fract_x
    _atom_site_fract_y
    _atom_site_fract_z
    _atom_site_occupancy
    Zr0     Zr   0.33330   0.16672   0.24999   1.000
    Zr1     Zr   0.33330   0.66673   0.24999   1.000
    Zr2     Zr   0.83331   0.16672   0.24999   1.000
    Zr3     Zr   0.83331   0.66673   0.24999   1.000
    Zr4     Zr   0.16671   0.33329   0.74998   1.000
    Zr5     Zr   0.16672   0.83330   0.74998   1.000
    Zr6     Zr   0.66672   0.33330   0.74998   1.000
    Zr7     Zr   0.66672   0.83330   0.74998   1.000
    Zr8     Zr   0.00003   0.00002   0.99999   1.000
    Zr9     Zr   0.00002   0.50002   0.99998   1.000
    Zr10    Zr   0.50003   0.00002   0.99999   1.000
    Zr11    Zr   0.50002   0.50002   0.99998   1.000
    Zr12    Zr   0.00002   0.00002   0.49999   1.000
    Zr13    Zr   0.00002   0.50003   0.49999   1.000
    Zr14    Zr   0.50003   0.00002   0.49999   1.000
    Zr15    Zr   0.50003   0.50003   0.49999   1.000
    N16     N    0.49989   0.80788   0.50000   1.000
    O17     O    0.49995   0.86996   0.49999   1.000
    N18     N    0.19201   0.19201   0.49999   1.000
    O19     O    0.12999   0.12999   0.49999   1.000
    N20     N    0.95921   0.77969   0.06150   1.000
    N21     N    0.80788   0.49989   0.00001   1.000
    O22     O    0.86996   0.49995   0.99999   1.000
    N23     N    0.53759   0.31736   0.93839   1.000
    N24     N    0.46217   0.27968   0.06152   1.000
    N25     N    0.69201   0.19201   0.99999   1.000
    O26     O    0.63000   0.12999   0.99999   1.000
    N27     N    0.99861   0.30787   0.50000   1.000
    O28     O    0.99931   0.36995   0.49999   1.000
    N29     N    0.19201   0.69202   0.99999   1.000
    O30     O    0.12998   0.62999   0.99998   1.000
    N31     N    0.19200   0.19202   1.00000   1.000
    O32     O    0.12999   0.12999   1.00000   1.000
    N33     N    0.30787   0.49990   0.99884   1.000
    O34     O    0.36995   0.49995   0.99940   1.000
    N35     N    0.95920   0.27968   0.06150   1.000
    N36     N    0.30788   0.99862   0.49997   1.000
    O37     O    0.36996   0.99931   0.49998   1.000
    N38     N    0.99862   0.80788   0.50001   1.000
    O39     O    0.99931   0.86996   0.49999   1.000
    N40     N    0.80789   0.99862   0.99999   1.000
    O41     O    0.86996   0.99931   0.99999   1.000
    N42     N    0.30788   0.49990   0.49997   1.000
    O43     O    0.36995   0.49995   0.49998   1.000
    N44     N    0.49989   0.80789   0.99996   1.000
    O45     O    0.49995   0.86996   0.99998   1.000
    N46     N    0.19201   0.69201   0.49998   1.000
    O47     O    0.12998   0.62999   0.49998   1.000
    N48     N    0.30788   0.99862   0.00001   1.000
    O49     O    0.36996   0.99931   1.00000   1.000
    N50     N    0.69202   0.69201   0.99996   1.000
    O51     O    0.62999   0.62999   0.99997   1.000
    N52     N    0.49989   0.30787   0.50001   1.000
    O53     O    0.49995   0.36995   0.49999   1.000
    N54     N    0.03759   0.81736   0.93839   1.000
    N55     N    0.69202   0.69201   0.49999   1.000
    O56     O    0.62999   0.62999   0.49999   1.000
    N57     N    0.69202   0.19201   0.49991   1.000
    O58     O    0.62999   0.12999   0.49995   1.000
    N59     N    0.80788   0.99862   0.49997   1.000
    O60     O    0.86996   0.99930   0.49998   1.000
    N61     N    0.80788   0.49989   0.49997   1.000
    O62     O    0.86996   0.49995   0.49998   1.000
    N63     N    0.03758   0.31735   0.93839   1.000
    N64     N    0.99999   0.86405   0.20000   1.000
    N65     N    0.50000   0.36405   0.30000   1.000
    N66     N    0.99999   0.36405   0.20000   1.000
    C67     C    0.16323   0.06006   0.12014   1.000
    O68     O    0.17543   0.10778   0.08082   1.000
    O69     O    0.21948   0.09381   0.16317   1.000
    O70     O    0.10716   0.03303   0.08264   1.000
    C71     C    0.66323   0.56006   0.12016   1.000
    O72     O    0.67545   0.60779   0.08082   1.000
    O73     O    0.60717   0.53304   0.08267   1.000
    O74     O    0.71949   0.59382   0.16318   1.000
    C75     C    0.56005   0.66322   0.87980   1.000
    O76     O    0.53303   0.60716   0.91730   1.000
    O77     O    0.59381   0.71948   0.83678   1.000
    O78     O    0.60778   0.67543   0.91912   1.000
    C79     C    0.60310   0.43983   0.62017   1.000
    O80     O    0.56758   0.39211   0.58083   1.000
    O81     O    0.62566   0.40610   0.66319   1.000
    O82     O    0.57409   0.46690   0.58268   1.000
    C83     C    0.66323   0.56005   0.37981   1.000
    O84     O    0.67544   0.60778   0.41915   1.000
    O85     O    0.60717   0.53303   0.41730   1.000
    O86     O    0.71949   0.59381   0.33679   1.000
    C87     C    0.89682   0.33682   0.12015   1.000
    O88     O    0.92212   0.31750   0.09619   1.000
    O89     O    0.87426   0.28055   0.16317   1.000
    O90     O    0.92589   0.39291   0.08267   1.000
    C91     C    0.39681   0.33682   0.12013   1.000
    O92     O    0.42285   0.31750   0.09619   1.000
    O93     O    0.37425   0.28054   0.16314   1.000
    O94     O    0.42589   0.39290   0.08266   1.000
    C95     C    0.93984   0.10311   0.12017   1.000
    O96     O    0.89212   0.06727   0.08083   1.000
    O97     O    0.96691   0.07409   0.08268   1.000
    O98     O    0.90612   0.12566   0.16319   1.000
    C99     C    0.39681   0.83683   0.12015   1.000
    O100    O    0.43228   0.82456   0.08081   1.000
    O101    O    0.37426   0.78055   0.16317   1.000
    O102    O    0.42589   0.89291   0.08267   1.000
    C103    C    0.89682   0.83683   0.12015   1.000
    O104    O    0.92212   0.81751   0.09619   1.000
    O105    O    0.87426   0.78055   0.16317   1.000
    O106    O    0.92590   0.89291   0.08267   1.000
    C107    C    0.43984   0.10311   0.12017   1.000
    O108    O    0.39212   0.06727   0.08084   1.000
    O109    O    0.46691   0.07409   0.08268   1.000
    O110    O    0.40611   0.12566   0.16319   1.000
    C111    C    0.43983   0.60311   0.12017   1.000
    O112    O    0.39211   0.56759   0.08055   1.000
    O113    O    0.46690   0.57410   0.08268   1.000
    O114    O    0.40610   0.62567   0.16319   1.000
    C115    C    0.93984   0.60311   0.12017   1.000
    O116    O    0.89212   0.56759   0.08084   1.000
    O117    O    0.96691   0.57410   0.08268   1.000
    O118    O    0.90611   0.62567   0.16319   1.000
    C119    C    0.16322   0.56005   0.37981   1.000
    O120    O    0.17543   0.60778   0.41915   1.000
    O121    O    0.10716   0.53303   0.41730   1.000
    O122    O    0.21948   0.59381   0.33679   1.000
    C123    C    0.16322   0.06005   0.37981   1.000
    O124    O    0.17543   0.10777   0.41915   1.000
    O125    O    0.10716   0.03302   0.41730   1.000
    O126    O    0.21948   0.09380   0.33679   1.000
    C127    C    0.89682   0.83682   0.37983   1.000
    O128    O    0.93197   0.82455   0.41917   1.000
    O129    O    0.92589   0.89290   0.41731   1.000
    O130    O    0.87426   0.78055   0.33682   1.000
    C131    C    0.16323   0.56007   0.12016   1.000
    O132    O    0.17543   0.60779   0.08083   1.000
    O133    O    0.10716   0.53304   0.08267   1.000
    O134    O    0.21948   0.59382   0.16318   1.000
    C135    C    0.39681   0.33682   0.37983   1.000
    O136    O    0.43228   0.32454   0.41917   1.000
    O137    O    0.42589   0.39290   0.41731   1.000
    O138    O    0.37425   0.28054   0.33682   1.000
    C139    C    0.10309   0.93983   0.87978   1.000
    O140    O    0.12565   0.90611   0.83677   1.000
    O141    O    0.07700   0.89449   0.90372   1.000
    O142    O    0.07408   0.96691   0.91728   1.000
    C143    C    0.89682   0.33682   0.37983   1.000
    O144    O    0.93196   0.32454   0.41917   1.000
    O145    O    0.87426   0.28054   0.33682   1.000
    O146    O    0.92589   0.39290   0.41731   1.000
    C147    C    0.39681   0.83683   0.37983   1.000
    O148    O    0.43228   0.82455   0.41917   1.000
    O149    O    0.42589   0.89291   0.41731   1.000
    O150    O    0.37425   0.78055   0.33682   1.000
    C151    C    0.33682   0.39681   0.87982   1.000
    O152    O    0.32454   0.43228   0.91887   1.000
    O153    O    0.39290   0.42589   0.91729   1.000
    O154    O    0.28054   0.37425   0.83680   1.000
    C155    C    0.93984   0.10310   0.37981   1.000
    O156    O    0.89212   0.06726   0.41914   1.000
    O157    O    0.96691   0.07409   0.41730   1.000
    O158    O    0.90611   0.12566   0.33679   1.000
    C159    C    0.66323   0.06006   0.12016   1.000
    O160    O    0.67544   0.10778   0.08083   1.000
    O161    O    0.60717   0.03303   0.08267   1.000
    O162    O    0.71949   0.09381   0.16318   1.000
    C163    C    0.43983   0.10310   0.37981   1.000
    O164    O    0.39211   0.06726   0.41914   1.000
    O165    O    0.46691   0.07409   0.41730   1.000
    O166    O    0.40611   0.12566   0.33679   1.000
    C167    C    0.33682   0.89682   0.87982   1.000
    O168    O    0.32454   0.93196   0.91916   1.000
    O169    O    0.28054   0.87426   0.83680   1.000
    O170    O    0.39290   0.92590   0.91730   1.000
    C171    C    0.83682   0.39681   0.87982   1.000
    O172    O    0.82455   0.43228   0.91916   1.000
    O173    O    0.89290   0.42589   0.91729   1.000
    O174    O    0.78055   0.37425   0.83680   1.000
    C175    C    0.83682   0.89681   0.87982   1.000
    O176    O    0.82455   0.93196   0.91915   1.000
    O177    O    0.78055   0.87426   0.83680   1.000
    O178    O    0.89291   0.92589   0.91730   1.000
    C179    C    0.60310   0.43983   0.87978   1.000
    O180    O    0.57409   0.46690   0.91728   1.000
    O181    O    0.62566   0.40610   0.83677   1.000
    O182    O    0.57701   0.39448   0.90372   1.000
    C183    C    0.10309   0.43983   0.87979   1.000
    O184    O    0.12565   0.40610   0.83678   1.000
    O185    O    0.07700   0.39448   0.90374   1.000
    O186    O    0.07408   0.46690   0.91729   1.000
    C187    C    0.56006   0.16322   0.62016   1.000
    O188    O    0.60778   0.17543   0.58080   1.000
    O189    O    0.59381   0.21947   0.66318   1.000
    O190    O    0.53303   0.10716   0.58266   1.000
    C191    C    0.10309   0.43982   0.62017   1.000
    O192    O    0.07408   0.46690   0.58268   1.000
    O193    O    0.12565   0.40610   0.66319   1.000
    O194    O    0.06726   0.39211   0.58083   1.000
    C195    C    0.10310   0.93983   0.62017   1.000
    O196    O    0.12565   0.90610   0.66319   1.000
    O197    O    0.07408   0.96690   0.58268   1.000
    O198    O    0.06726   0.89212   0.58083   1.000
    C199    C    0.60310   0.93983   0.62017   1.000
    O200    O    0.62566   0.90611   0.66319   1.000
    O201    O    0.57409   0.96691   0.58268   1.000
    O202    O    0.56759   0.89212   0.58083   1.000
    C203    C    0.33682   0.39681   0.62015   1.000
    O204    O    0.28054   0.37425   0.66316   1.000
    O205    O    0.39290   0.42589   0.58267   1.000
    O206    O    0.32454   0.43228   0.58080   1.000
    C207    C    0.33682   0.89682   0.62012   1.000
    O208    O    0.39291   0.92590   0.58266   1.000
    O209    O    0.28054   0.87426   0.66315   1.000
    O210    O    0.32455   0.93196   0.58078   1.000
    C211    C    0.06005   0.66322   0.87980   1.000
    O212    O    0.03302   0.60716   0.91730   1.000
    O213    O    0.09380   0.71948   0.83678   1.000
    O214    O    0.10777   0.67544   0.91914   1.000
    C215    C    0.56005   0.16322   0.87979   1.000
    O216    O    0.53303   0.10716   0.91729   1.000
    O217    O    0.59381   0.21947   0.83676   1.000
    O218    O    0.60778   0.17543   0.91913   1.000
    C219    C    0.66323   0.06005   0.37981   1.000
    O220    O    0.60717   0.03303   0.41730   1.000
    O221    O    0.67544   0.10777   0.41913   1.000
    O222    O    0.71949   0.09380   0.33679   1.000
    C223    C    0.83683   0.89681   0.62012   1.000
    O224    O    0.89291   0.92589   0.58266   1.000
    O225    O    0.78055   0.87426   0.66315   1.000
    O226    O    0.82455   0.93196   0.58078   1.000
    C227    C    0.43983   0.60311   0.37981   1.000
    O228    O    0.46690   0.57410   0.41730   1.000
    O229    O    0.40610   0.62567   0.33679   1.000
    O230    O    0.39211   0.56759   0.41914   1.000
    C231    C    0.56006   0.66322   0.62016   1.000
    O232    O    0.53303   0.60716   0.58266   1.000
    O233    O    0.59381   0.71948   0.66318   1.000
    O234    O    0.60778   0.67543   0.58082   1.000
    C235    C    0.60310   0.93984   0.87978   1.000
    O236    O    0.56759   0.89212   0.91911   1.000
    O237    O    0.57409   0.96691   0.91728   1.000
    O238    O    0.62566   0.90611   0.83677   1.000
    C239    C    0.06005   0.16321   0.87981   1.000
    O240    O    0.03302   0.10715   0.91730   1.000
    O241    O    0.10777   0.17543   0.91915   1.000
    O242    O    0.09380   0.21947   0.83679   1.000
    C243    C    0.93984   0.60311   0.37981   1.000
    O244    O    0.90611   0.62566   0.33679   1.000
    O245    O    0.96691   0.57410   0.41730   1.000
    O246    O    0.89212   0.56759   0.41914   1.000
    C247    C    0.06005   0.66322   0.62016   1.000
    O248    O    0.10777   0.67544   0.58082   1.000
    O249    O    0.09380   0.71948   0.66318   1.000
    O250    O    0.03302   0.60716   0.58266   1.000
    C251    C    0.06005   0.16321   0.62016   1.000
    O252    O    0.09380   0.21947   0.66318   1.000
    O253    O    0.03302   0.10715   0.58266   1.000
    O254    O    0.10777   0.17543   0.58082   1.000
    C255    C    0.83683   0.39681   0.62015   1.000
    O256    O    0.89291   0.42589   0.58267   1.000
    O257    O    0.82455   0.43228   0.58080   1.000
    O258    O    0.78055   0.37425   0.66316   1.000
loop_
    _geom_bond_atom_site_label_1
    _geom_bond_atom_site_label_2
    _geom_bond_distance
    _geom_bond_site_symmetry_2
    _ccdc_geom_bond_type
    N16    O17       1.12224      .   S
    Zr14   O17       2.35173  1_545   S
    N18    O19       1.12210      .   S
    Zr12   O19       2.35137      .   S
    N21    O22       1.12223  1_554   S
    Zr9    O22       2.35166  1_455   S
    N25    O26       1.12208      .   S
    Zr10   O26       2.35135      .   S
    N27    O28       1.11664      .   S
    Zr13   O28       2.34623  1_455   S
    N29    O30       1.12215      .   S
    Zr9    O30       2.35143      .   S
    N31    O32       1.12207      .   S
    Zr8    O32       2.35135      .   S
    N33    O34       1.12233      .   S
    Zr11   O34       2.35193      .   S
    N36    O37       1.11663      .   S
    Zr14   O37       2.34621  1_545   S
    N38    O39       1.11657      .   S
    Zr12   O39       2.34604  1_445   S
    N40    O41       1.11659      .   S
    Zr8    O41       2.34604  1_445   S
    N42    O43       1.12230      .   S
    Zr15   O43       2.35192      .   S
    N44    O45       1.12224      .   S
    Zr10   O45       2.35175  1_545   S
    N46    O47       1.12210      .   S
    Zr13   O47       2.35136      .   S
    N48    O49       1.11665  1_554   S
    Zr10   O49       2.34625  1_545   S
    N50    O51       1.12215      .   S
    Zr11   O51       2.35143      .   S
    N52    O53       1.12231      .   S
    Zr15   O53       2.35194      .   S
    N55    O56       1.12210      .   S
    Zr15   O56       2.35137      .   S
    N57    O58       1.12211      .   S
    Zr14   O58       2.35138      .   S
    N59    O60       1.11656      .   S
    Zr12   O60       2.34602  1_445   S
    N61    O62       1.12224      .   S
    Zr13   O62       2.35172  1_455   S
    C67    O68       1.04623      .   S
    N31    O68       2.00759  1_556   S
    C67    O69       1.17281      .   S
    Zr0    O69       2.37887      .   S
    C67    O70       1.10385      .   S
    Zr8    O70       2.26408  1_556   S
    C71    O72       1.04643      .   S
    N50    O72       2.00785  1_556   S
    C71    O73       1.10389      .   S
    Zr11   O73       2.26457  1_556   S
    C71    O74       1.17273      .   S
    Zr3    O74       2.37865      .   S
    C75    O76       1.10382      .   S
    Zr11   O76       2.26433      .   S
    C75    O77       1.17274      .   S
    Zr7    O77       2.37865      .   S
    C75    O78       1.04627      .   S
    N50    O78       2.00781      .   S
    C79    O80       1.04649      .   S
    N52    O80       2.00792      .   S
    C79    O81       1.17268      .   S
    Zr6    O81       2.37838      .   S
    C79    O82       1.10391      .   S
    Zr15   O82       2.26452      .   S
    C83    O84       1.04642      .   S
    N55    O84       2.00772      .   S
    C83    O85       1.10380      .   S
    Zr15   O85       2.26446      .   S
    C83    O86       1.17269      .   S
    Zr3    O86       2.37862      .   S
    C87    O88       0.82078      .   S
    N35    O88       1.32619      .   S
    C87    O89       1.17275      .   S
    Zr2    O89       2.37869      .   S
    C87    O90       1.10396      .   S
    Zr9    O90       2.26443  1_456   S
    C91    O92       0.83104      .   S
    N24    O92       1.35705      .   S
    C91    O93       1.17268      .   S
    Zr0    O93       2.37902      .   S
    C91    O94       1.10383      .   S
    Zr11   O94       2.26433  1_556   S
    C95    O96       1.04774      .   S
    N40    O96       2.01222  1_566   S
    C95    O97       1.10388      .   S
    Zr8    O97       2.26446  1_456   S
    C95    O98       1.17268      .   S
    Zr2    O98       2.37840      .   S
    C99    O100      1.04647      .   S
    N44    O100      2.00794  1_556   S
    C99    O101      1.17275      .   S
    Zr1    O101      2.37868      .   S
    C99    O102      1.10391      .   S
    Zr10   O102      2.26434  1_546   S
    C103   O104      0.82079      .   S
    N20    O104      1.32620      .   S
    C103   O105      1.17275      .   S
    Zr3    O105      2.37868      .   S
    C103   O106      1.10391      .   S
    Zr8    O106      2.26432  1_446   S
    C107   O108      1.04768      .   S
    N48    O108      2.01202  1_565   S
    C107   O109      1.10392      .   S
    Zr10   O109      2.26458  1_556   S
    C107   O110      1.17268      .   S
    Zr0    O110      2.37840      .   S
    C111   O112      1.05000      .   S
    N33    O112      2.01925  1_556   S
    C111   O113      1.10395      .   S
    Zr11   O113      2.26467  1_556   S
    C111   O114      1.17268      .   S
    Zr1    O114      2.37839      .   S
    C115   O116      1.04651      .   S
    N21    O116      2.00799      .   S
    C115   O117      1.10389      .   S
    Zr9    O117      2.26454  1_456   S
    C115   O118      1.17268      .   S
    Zr3    O118      2.37841      .   S
    C119   O120      1.04642      .   S
    N46    O120      2.00772      .   S
    C119   O121      1.10379      .   S
    Zr13   O121      2.26445      .   S
    C119   O122      1.17269      .   S
    Zr1    O122      2.37863      .   S
    C123   O124      1.04643      .   S
    N18    O124      2.00774      .   S
    C123   O125      1.10379      .   S
    Zr12   O125      2.26446      .   S
    C123   O126      1.17269      .   S
    Zr0    O126      2.37862      .   S
    C127   O128      1.04225      .   S
    N38    O128      1.99592      .   S
    C127   O129      1.10391      .   S
    Zr12   O129      2.26433  1_445   S
    C127   O130      1.17273      .   S
    Zr3    O130      2.37870      .   S
    C131   O132      1.04639      .   S
    N29    O132      2.00769  1_556   S
    C131   O133      1.10386      .   S
    Zr9    O133      2.26454  1_556   S
    C131   O134      1.17275      .   S
    Zr1    O134      2.37869      .   S
    C135   O136      1.04640      .   S
    N52    O136      2.00777      .   S
    C135   O137      1.10396      .   S
    Zr15   O137      2.26447      .   S
    C135   O138      1.17273      .   S
    Zr0    O138      2.37870      .   S
    C139   O140      1.17261      .   S
    Zr5    O140      2.37832      .   S
    C139   O141      0.83115      .   S
    N54    O141      1.35725      .   S
    C139   O142      1.10400      .   S
    Zr8    O142      2.26457  1_545   S
    C143   O144      1.04221      .   S
    N27    O144      1.99580      .   S
    C143   O145      1.17273      .   S
    Zr2    O145      2.37870      .   S
    C143   O146      1.10395      .   S
    Zr13   O146      2.26444  1_455   S
    C147   O148      1.04638      .   S
    N16    O148      2.00769      .   S
    C147   O149      1.10391      .   S
    Zr14   O149      2.26435  1_545   S
    C147   O150      1.17274      .   S
    Zr1    O150      2.37871      .   S
    C151   O152      1.04298      .   S
    N33    O152      1.99672      .   S
    C151   O153      1.10394      .   S
    Zr11   O153      2.26447      .   S
    C151   O154      1.17275      .   S
    Zr4    O154      2.37872      .   S
    C155   O156      1.04765      .   S
    N59    O156      2.01195  1_565   S
    C155   O157      1.10388      .   S
    Zr12   O157      2.26447  1_455   S
    C155   O158      1.17269      .   S
    Zr2    O158      2.37843      .   S
    C159   O160      1.04639      .   S
    N25    O160      2.00772  1_556   S
    C159   O161      1.10382      .   S
    Zr10   O161      2.26439  1_556   S
    C159   O162      1.17274      .   S
    Zr2    O162      2.37867      .   S
    C163   O164      1.04765      .   S
    N36    O164      2.01194  1_565   S
    C163   O165      1.10392      .   S
    Zr14   O165      2.26458      .   S
    C163   O166      1.17270      .   S
    Zr0    O166      2.37844      .   S
    C167   O168      1.04232      .   S
    N48    O168      1.99604  1_554   S
    C167   O169      1.17275      .   S
    Zr5    O169      2.37870      .   S
    C167   O170      1.10400      .   S
    Zr10   O170      2.26462  1_545   S
    C171   O172      1.04647      .   S
    N21    O172      2.00788  1_554   S
    C171   O173      1.10390      .   S
    Zr9    O173      2.26436  1_455   S
    C171   O174      1.17276      .   S
    Zr6    O174      2.37871      .   S
    C175   O176      1.04219      .   S
    N40    O176      1.99591      .   S
    C175   O177      1.17275      .   S
    Zr7    O177      2.37870      .   S
    C175   O178      1.10396      .   S
    Zr8    O178      2.26452  1_445   S
    C179   O180      1.10402      .   S
    Zr11   O180      2.26462      .   S
    C179   O181      1.17261      .   S
    Zr6    O181      2.37833      .   S
    C179   O182      0.83117      .   S
    N23    O182      1.35728      .   S
    C183   O184      1.17271      .   S
    Zr4    O184      2.37843      .   S
    C183   O185      0.83114      .   S
    N63    O185      1.35715      .   S
    C183   O186      1.10393      .   S
    Zr9    O186      2.26452      .   S
    C187   O188      1.04657      .   S
    N57    O188      2.00835      .   S
    C187   O189      1.17275      .   S
    Zr6    O189      2.37867      .   S
    C187   O190      1.10380      .   S
    Zr14   O190      2.26424      .   S
    C191   O192      1.10391      .   S
    Zr13   O192      2.26451      .   S
    C191   O193      1.17268      .   S
    Zr4    O193      2.37838      .   S
    C191   O194      1.04769      .   S
    N27    O194      2.01206  1_655   S
    C195   O196      1.17269      .   S
    Zr5    O196      2.37840      .   S
    C195   O197      1.10387      .   S
    Zr12   O197      2.26442  1_545   S
    C195   O198      1.04765      .   S
    N38    O198      2.01195  1_655   S
    C199   O200      1.17268      .   S
    Zr7    O200      2.37838      .   S
    C199   O201      1.10386      .   S
    Zr14   O201      2.26441  1_545   S
    C199   O202      1.04651      .   S
    N16    O202      2.00801      .   S
    C203   O204      1.17272      .   S
    Zr4    O204      2.37867      .   S
    C203   O205      1.10392      .   S
    Zr15   O205      2.26438      .   S
    C203   O206      1.04644      .   S
    N42    O206      2.00783      .   S
    C207   O208      1.10378      .   S
    Zr14   O208      2.26420  1_545   S
    C207   O209      1.17288      .   S
    Zr5    O209      2.37882      .   S
    C207   O210      1.04222      .   S
    N36    O210      1.99564      .   S
    C211   O212      1.10383      .   S
    Zr9    O212      2.26434      .   S
    C211   O213      1.17274      .   S
    Zr5    O213      2.37863      .   S
    C211   O214      1.04641      .   S
    N29    O214      2.00780      .   S
    C215   O216      1.10391      .   S
    Zr10   O216      2.26445      .   S
    C215   O217      1.17278      .   S
    Zr6    O217      2.37845      .   S
    C215   O218      1.04650      .   S
    N25    O218      2.00794      .   S
    C219   O220      1.10379      .   S
    Zr14   O220      2.26445      .   S
    C219   O221      1.04621      .   S
    N57    O221      2.00705      .   S
    C219   O222      1.17269      .   S
    Zr2    O222      2.37862      .   S
    C223   O224      1.10374      .   S
    Zr12   O224      2.26408  1_445   S
    C223   O225      1.17288      .   S
    Zr7    O225      2.37882      .   S
    C223   O226      1.04222      .   S
    N59    O226      1.99563      .   S
    C227   O228      1.10393      .   S
    Zr15   O228      2.26458      .   S
    C227   O229      1.17270      .   S
    Zr1    O229      2.37843      .   S
    C227   O230      1.04645      .   S
    N42    O230      2.00790      .   S
    C231   O232      1.10380      .   S
    Zr15   O232      2.26424      .   S
    C231   O233      1.17275      .   S
    Zr7    O233      2.37868      .   S
    C231   O234      1.04637      .   S
    N55    O234      2.00768      .   S
    C235   O236      1.04648      .   S
    N44    O236      2.00806      .   S
    C235   O237      1.10400      .   S
    Zr10   O237      2.26457  1_545   S
    C235   O238      1.17260      .   S
    Zr7    O238      2.37831      .   S
    C239   O240      1.10382      .   S
    Zr8    O240      2.26435      .   S
    C239   O241      1.04641      .   S
    N31    O241      2.00782      .   S
    C239   O242      1.17273      .   S
    Zr4    O242      2.37868      .   S
    C243   O244      1.17270      .   S
    Zr3    O244      2.37844      .   S
    C243   O245      1.10388      .   S
    Zr13   O245      2.26447  1_455   S
    C243   O246      1.04647      .   S
    N61    O246      2.00789      .   S
    C247   O248      1.04637      .   S
    N46    O248      2.00767      .   S
    C247   O249      1.17275      .   S
    Zr5    O249      2.37867      .   S
    C247   O250      1.10380      .   S
    Zr13   O250      2.26425      .   S
    C251   O252      1.17275      .   S
    Zr4    O252      2.37867      .   S
    C251   O253      1.10380      .   S
    Zr12   O253      2.26424      .   S
    C251   O254      1.04636      .   S
    N18    O254      2.00766      .   S
    C255   O256      1.10388      .   S
    Zr13   O256      2.26428  1_455   S
    C255   O257      1.04642      .   S
    N61    O257      2.00780      .   S
    C255   O258      1.17272      .   S
    Zr6    O258      2.37867      .   S
