# CIF file generated by openbabel 2.4.90, see http://openbabel.sf.net
data_I
_chemical_name_common ''
_cell_length_a 14.233
_cell_length_b 15.7
_cell_length_c 15.696
_cell_angle_alpha 87.161
_cell_angle_beta 76.976
_cell_angle_gamma 76.979
_space_group_name_H-M_alt 'P 1'
_space_group_name_Hall 'P 1'
loop_
    _symmetry_equiv_pos_as_xyz
    x,y,z
loop_
    _atom_site_label
    _atom_site_type_symbol
    _atom_site_fract_x
    _atom_site_fract_y
    _atom_site_fract_z
    _atom_site_occupancy
    H0      H    0.28494   0.74019   0.15679   1.000
    H1      H    0.78368   0.73960   0.15821   1.000
    H2      H    0.39266   0.74595   0.00524   1.000
    H3      H    0.89263   0.74571   0.00722   1.000
    H4      H    0.31595   0.75358   0.87650   1.000
    H5      H    0.81730   0.75364   0.87765   1.000
    H6      H    0.03821   0.74990   0.05433   1.000
    H7      H    0.53842   0.74974   0.05350   1.000
    H8      H    0.23143   0.25987   0.84293   1.000
    H9      H    0.73254   0.25898   0.84272   1.000
    H10     H    0.26694   0.25415   0.99440   1.000
    H11     H    0.76819   0.25322   0.99417   1.000
    H12     H    0.13029   0.24632   0.12332   1.000
    H13     H    0.63137   0.24637   0.12315   1.000
    H14     H    0.43920   0.25136   0.94591   1.000
    H15     H    0.93865   0.25030   0.94584   1.000
    H16     H    0.13733   0.15726   0.26000   1.000
    H17     H    0.63587   0.15586   0.25984   1.000
    H18     H    0.10440   0.00590   0.25427   1.000
    H19     H    0.60469   0.00385   0.25414   1.000
    H20     H    0.24479   0.87694   0.24637   1.000
    H21     H    0.74611   0.87584   0.24640   1.000
    H22     H    0.43497   0.05408   0.24981   1.000
    H23     H    0.93391   0.05503   0.24995   1.000
    H24     H    0.34614   0.84184   0.74019   1.000
    H25     H    0.84455   0.84201   0.74069   1.000
    H26     H    0.23433   0.99278   0.74595   1.000
    H27     H    0.73307   0.99310   0.74610   1.000
    H28     H    0.30597   0.12237   0.75312   1.000
    H29     H    0.80500   0.12250   0.75296   1.000
    H30     H    0.08584   0.94638   0.74785   1.000
    H31     H    0.58708   0.94652   0.74773   1.000
    H32     H    0.39097   0.65716   0.24117   1.000
    H33     H    0.89273   0.65704   0.23960   1.000
    H34     H    0.35541   0.50574   0.24679   1.000
    H35     H    0.85707   0.50568   0.24513   1.000
    H36     H    0.49230   0.37683   0.25341   1.000
    H37     H    0.99358   0.37672   0.25313   1.000
    H38     H    0.18528   0.55395   0.24982   1.000
    H39     H    0.68450   0.55403   0.24817   1.000
    H40     H    0.34014   0.34328   0.76046   1.000
    H41     H    0.83932   0.34298   0.75980   1.000
    H42     H    0.23239   0.49477   0.75430   1.000
    H43     H    0.73141   0.49446   0.75417   1.000
    H44     H    0.30914   0.62346   0.74641   1.000
    H45     H    0.80790   0.62321   0.74653   1.000
    H46     H    0.08587   0.44571   0.74995   1.000
    H47     H    0.58688   0.44576   0.75030   1.000
    H48     H    0.27887   0.75986   0.65821   1.000
    H49     H    0.78056   0.75936   0.65664   1.000
    H50     H    0.39068   0.75426   0.50718   1.000
    H51     H    0.89104   0.75386   0.50505   1.000
    H52     H    0.31909   0.74714   0.37758   1.000
    H53     H    0.81791   0.74694   0.37630   1.000
    H54     H    0.03801   0.75211   0.55346   1.000
    H55     H    0.53797   0.75220   0.55400   1.000
    H56     H    0.48797   0.24030   0.34394   1.000
    H57     H    0.98623   0.24023   0.34255   1.000
    H58     H    0.01920   0.24604   0.49394   1.000
    H59     H    0.51914   0.24614   0.49590   1.000
    H60     H    0.37773   0.25381   0.62406   1.000
    H61     H    0.87890   0.25378   0.62299   1.000
    H62     H    0.19001   0.24991   0.44487   1.000
    H63     H    0.68864   0.25034   0.44588   1.000
    C64     C    0.25545   0.74292   0.09818   1.000
    C65     C    0.75482   0.74253   0.09924   1.000
    C66     C    0.31426   0.74667   0.01489   1.000
    C67     C    0.81429   0.74645   0.01629   1.000
    C68     C    0.27147   0.75169   0.94258   1.000
    C69     C    0.77228   0.75165   0.94349   1.000
    C70     C    0.17044   0.75364   0.95587   1.000
    C71     C    0.67133   0.75361   0.95605   1.000
    C72     C    0.11692   0.74875   0.04159   1.000
    C73     C    0.61710   0.74858   0.04148   1.000
    C74     C    0.11838   0.76010   0.88186   1.000
    C75     C    0.61988   0.76017   0.88166   1.000
    C76     C    0.17425   0.25711   0.90161   1.000
    C77     C    0.67530   0.25665   0.90144   1.000
    C78     C    0.19368   0.25333   0.98485   1.000
    C79     C    0.69480   0.25288   0.98464   1.000
    C80     C    0.11759   0.24827   0.05727   1.000
    C81     C    0.61862   0.24838   0.05712   1.000
    C82     C    0.02409   0.24635   0.04410   1.000
    C83     C    0.52492   0.24708   0.04403   1.000
    C84     C    0.01052   0.25132   0.95843   1.000
    C85     C    0.51125   0.25198   0.95842   1.000
    C86     C    0.43930   0.24119   0.11820   1.000
    C87     C    0.93848   0.23986   0.11812   1.000
    C88     C    0.19582   0.09854   0.25716   1.000
    C89     C    0.69486   0.09752   0.25700   1.000
    C90     C    0.17810   0.01538   0.25342   1.000
    C91     C    0.67811   0.01401   0.25336   1.000
    O92     O    0.59241   0.10358   0.75211   1.000
    O93     O    0.16840   0.30392   0.27032   1.000
    O94     O    0.66694   0.30418   0.27028   1.000
    O95     O    0.26927   0.39694   0.25531   1.000
    C96     C    0.25663   0.94294   0.24820   1.000
    C97     C    0.75725   0.94209   0.24827   1.000
    C98     C    0.35117   0.95600   0.24619   1.000
    C99     C    0.85140   0.95601   0.24625   1.000
    C100    C    0.36248   0.04157   0.25103   1.000
    C101    C    0.86170   0.04188   0.25113   1.000
    C102    C    0.43982   0.88184   0.23973   1.000
    C103    C    0.94091   0.88266   0.23980   1.000
    C104    C    0.37374   0.90079   0.74256   1.000
    C105    C    0.87233   0.90090   0.74286   1.000
    C106    C    0.31238   0.98377   0.74637   1.000
    C107    C    0.81113   0.98392   0.74652   1.000
    C108    C    0.35198   0.05654   0.75103   1.000
    C109    C    0.85088   0.05662   0.75102   1.000
    C110    C    0.45214   0.04399   0.75231   1.000
    C111    C    0.95103   0.04397   0.75235   1.000
    C112    C    0.00757   0.95852   0.74736   1.000
    C113    C    0.50881   0.95859   0.74724   1.000
    C114    C    0.50055   0.11834   0.75851   1.000
    C115    C    0.99947   0.11827   0.75849   1.000
    C116    C    0.44828   0.59847   0.24333   1.000
    C117    C    0.94982   0.59834   0.24250   1.000
    C118    C    0.42881   0.51528   0.24703   1.000
    C119    C    0.93032   0.51516   0.24612   1.000
    C120    C    0.50504   0.44284   0.25143   1.000
    C121    C    0.00000   0.44273   0.25100   1.000
    C122    C    0.09974   0.45584   0.25345   1.000
    C123    C    0.59876   0.45594   0.25263   1.000
    C124    C    0.11339   0.54143   0.24862   1.000
    C125    C    0.61241   0.54153   0.24770   1.000
    C126    C    0.18525   0.38177   0.26006   1.000
    C127    C    0.68437   0.38180   0.25860   1.000
    C128    C    0.36962   0.40191   0.75753   1.000
    C129    C    0.86872   0.40164   0.75711   1.000
    C130    C    0.31080   0.48514   0.75364   1.000
    C131    C    0.80981   0.48484   0.75340   1.000
    C132    C    0.35361   0.55742   0.74843   1.000
    C133    C    0.85248   0.55718   0.74835   1.000
    C134    C    0.45464   0.54416   0.74647   1.000
    C135    C    0.95352   0.54401   0.74632   1.000
    C136    C    0.00715   0.45837   0.75116   1.000
    C137    C    0.50816   0.45850   0.75148   1.000
    C138    C    0.00539   0.61811   0.73985   1.000
    C139    C    0.50672   0.61817   0.73989   1.000
    C140    C    0.25131   0.75748   0.59922   1.000
    C141    C    0.75227   0.75716   0.59802   1.000
    C142    C    0.31265   0.75377   0.51624   1.000
    C143    C    0.81292   0.75346   0.51471   1.000
    C144    C    0.27308   0.74911   0.44343   1.000
    C145    C    0.77248   0.74894   0.44239   1.000
    C146    C    0.17297   0.74771   0.45597   1.000
    C147    C    0.67225   0.74765   0.45568   1.000
    C148    C    0.11626   0.75269   0.54140   1.000
    C149    C    0.61629   0.75267   0.54139   1.000
    C150    C    0.12461   0.74152   0.38160   1.000
    C151    C    0.62326   0.74145   0.38170   1.000
    C152    C    0.42900   0.24302   0.40230   1.000
    C153    C    0.92778   0.24311   0.40132   1.000
    C154    C    0.44574   0.24685   0.48584   1.000
    C155    C    0.94553   0.24684   0.48440   1.000
    C156    C    0.36660   0.25189   0.55781   1.000
    C157    C    0.86702   0.25193   0.55698   1.000
    C158    C    0.27247   0.25380   0.54389   1.000
    C159    C    0.77248   0.25396   0.54396   1.000
    C160    C    0.26220   0.24883   0.45800   1.000
    C161    C    0.76114   0.24913   0.45837   1.000
    C162    C    0.18290   0.26020   0.61719   1.000
    C163    C    0.68385   0.26035   0.61816   1.000
    N164    N    0.15804   0.74309   0.11150   1.000
    N165    N    0.65747   0.74275   0.11183   1.000
    N166    N    0.08348   0.25693   0.88842   1.000
    N167    N    0.58437   0.25697   0.88836   1.000
    N168    N    0.28676   0.11161   0.25675   1.000
    N169    N    0.78543   0.11141   0.25684   1.000
    N170    N    0.47113   0.88820   0.74219   1.000
    N171    N    0.96975   0.88821   0.74242   1.000
    N172    N    0.04052   0.61147   0.24292   1.000
    N173    N    0.53924   0.61157   0.24286   1.000
    N174    N    0.46703   0.38861   0.75729   1.000
    N175    N    0.96613   0.38843   0.75685   1.000
    N176    N    0.15394   0.75776   0.61180   1.000
    N177    N    0.65480   0.75760   0.61134   1.000
    N178    N    0.33845   0.24316   0.38844   1.000
    N179    N    0.83683   0.24344   0.38829   1.000
    O180    O    0.16885   0.77042   0.80399   1.000
    O181    O    0.67069   0.77040   0.80392   1.000
    O182    O    0.02923   0.75517   0.89696   1.000
    O183    O    0.53069   0.75534   0.89642   1.000
    O184    O    0.45669   0.22961   0.19585   1.000
    O185    O    0.95518   0.22966   0.19604   1.000
    O186    O    0.35479   0.24767   0.10340   1.000
    O187    O    0.85450   0.24464   0.10284   1.000
    O188    O    0.42785   0.80400   0.22954   1.000
    O189    O    0.93002   0.80439   0.22965   1.000
    O190    O    0.02196   0.89890   0.24459   1.000
    O191    O    0.52158   0.89676   0.24456   1.000
    O192    O    0.44448   0.19593   0.77031   1.000
    O193    O    0.94338   0.19590   0.77021   1.000
    O194    O    0.09127   0.10352   0.75210   1.000
    O195    O    0.76887   0.39660   0.25214   1.000
    O196    O    0.45632   0.69600   0.72950   1.000
    O197    O    0.95482   0.69591   0.72957   1.000
    O198    O    0.09454   0.60315   0.74476   1.000
    O199    O    0.59589   0.60307   0.74481   1.000
    O200    O    0.18068   0.72974   0.30396   1.000
    O201    O    0.67905   0.72964   0.30397   1.000
    O202    O    0.03275   0.74792   0.39633   1.000
    O203    O    0.53140   0.74783   0.39675   1.000
    O204    O    0.19368   0.27035   0.69551   1.000
    O205    O    0.69581   0.27051   0.69601   1.000
    O206    O    0.10189   0.25538   0.60080   1.000
    O207    O    0.60209   0.25547   0.60323   1.000
loop_
    _geom_bond_atom_site_label_1
    _geom_bond_atom_site_label_2
    _geom_bond_distance
    _geom_bond_site_symmetry_2
    _ccdc_geom_bond_type
    H2     C66       1.08931      .   S
    H3     C67       1.08916      .   S
    C66    C64       1.39091      .   S
    C66    C68       1.39512  1_554   S
    C67    C65       1.39076      .   S
    C67    C69       1.39526  1_554   S
    C73    H7        1.08893      .   S
    C73    N165      1.34545      .   S
    C73    C71       1.39661  1_554   S
    C72    H6        1.08887      .   S
    C72    N164      1.34573      .   S
    C72    C70       1.39666  1_554   S
    C83    C81       1.39898      .   S
    C83    C86       1.49987      .   S
    C83    C85       1.39651  1_554   S
    C82    C80       1.39896      .   S
    C82    C87       1.50039  1_455   S
    C82    C84       1.39693  1_554   S
    C81    H13       1.08955      .   S
    C81    C79       1.39488  1_554   S
    C80    H12       1.08962      .   S
    C80    C78       1.39511  1_554   S
    C64    N164      1.35405      .   S
    C64    H0        1.08921      .   S
    C65    N165      1.35402      .   S
    C65    H1        1.08912      .   S
    O187   C87       1.25652      .   S
    O186   C86       1.25679      .   S
    C87    O185      1.29321      .   S
    C86    O184      1.29361      .   S
    O188   C102      1.29363      .   S
    O189   C103      1.29455      .   S
    H33    C117      1.08934      .   S
    C102   O191      1.25670      .   S
    C102   C98       1.50007      .   S
    C103   O190      1.25504  1_655   S
    C103   C99       1.50051      .   S
    H32    C116      1.08919      .   S
    C117   N172      1.35387  1_655   S
    C117   C119      1.39095      .   S
    N173   C116      1.35420      .   S
    N173   C125      1.34577      .   S
    N172   C124      1.34575      .   S
    C116   C118      1.39073      .   S
    H35    C119      1.08938      .   S
    C119   C121      1.34165  1_655   S
    C98    C96       1.39921      .   S
    C98    C100      1.39623  1_565   S
    C99    C97       1.39884      .   S
    C99    C101      1.39615  1_565   S
    H20    C96       1.08940      .   S
    H21    C97       1.08947      .   S
    H34    C118      1.08917      .   S
    C118   C120      1.39475      .   S
    C125   H39       1.08891      .   S
    C125   C123      1.39630      .   S
    C96    C90       1.39454  1_565   S
    C97    C91       1.39477  1_565   S
    C124   H38       1.08883      .   S
    C124   C122      1.39650      .   S
    H22    C100      1.08891      .   S
    H23    C101      1.08893      .   S
    C121   H37       1.05899  1_455   S
    C121   C122      1.48862      .   S
    C100   N168      1.34567      .   S
    C101   N169      1.34545      .   S
    C120   C123      1.39895      .   S
    C120   H36       1.08951      .   S
    O195   C127      1.25671      .   S
    C123   C127      1.49999      .   S
    C91    H19       1.08930      .   S
    C91    C89       1.39062      .   S
    C90    H18       1.08922      .   S
    C90    C88       1.39069      .   S
    C122   C126      1.50056      .   S
    O95    C126      1.25658      .   S
    N168   C88       1.35413      .   S
    N169   C89       1.35436      .   S
    C89    H17       1.08916      .   S
    C88    H16       1.08932      .   S
    C127   O94       1.29378      .   S
    C126   O93       1.29316      .   S
    O200   C150      1.29367      .   S
    O201   C151      1.29339      .   S
    H57    C153      1.08920      .   S
    H56    C152      1.08931      .   S
    H53    C145      1.08949      .   S
    H52    C144      1.08951      .   S
    C150   O202      1.25685      .   S
    C150   C146      1.49974      .   S
    C151   O203      1.25673      .   S
    C151   C147      1.50024      .   S
    N179   C153      1.35411      .   S
    N179   C161      1.34560      .   S
    N178   C152      1.35406      .   S
    N178   C160      1.34533      .   S
    C153   C155      1.38944      .   S
    C152   C154      1.39093      .   S
    C145   C147      1.39913      .   S
    C145   C143      1.39487      .   S
    C144   C146      1.39894      .   S
    C144   C142      1.39482      .   S
    H62    C160      1.08889      .   S
    H63    C161      1.08889      .   S
    C147   C149      1.39633      .   S
    C146   C148      1.39633      .   S
    C160   C158      1.39618      .   S
    C161   C159      1.39636      .   S
    C155   H58       1.08929  1_655   S
    C155   C157      1.39569      .   S
    C154   H59       1.08880      .   S
    C154   C156      1.39506      .   S
    H51    C143      1.08929      .   S
    H50    C142      1.08915      .   S
    C143   C141      1.39089      .   S
    C142   C140      1.39076      .   S
    C149   H55       1.08894      .   S
    C149   N177      1.34565      .   S
    C148   H54       1.08883      .   S
    C148   N176      1.34537      .   S
    C158   C156      1.39884      .   S
    C158   C162      1.50053      .   S
    C159   C157      1.39903      .   S
    C159   C163      1.50005      .   S
    C157   H61       1.08955      .   S
    C156   H60       1.08943      .   S
    C141   N177      1.35403      .   S
    C141   H49       1.08914      .   S
    C140   N176      1.35406      .   S
    C140   H48       1.08918      .   S
    O206   C162      1.25550      .   S
    O207   C163      1.25682      .   S
    C162   O204      1.29440      .   S
    C163   O205      1.29339      .   S
    O196   C139      1.29322      .   S
    O197   C138      1.29344  1_655   S
    C138   O198      1.25671      .   S
    C138   C135      1.50005  1_455   S
    C139   O199      1.25680      .   S
    C139   C134      1.50060      .   S
    H24    C104      1.08907      .   S
    H25    C105      1.08915      .   S
    N170   C104      1.35411      .   S
    N170   C113      1.34539      .   S
    N171   C105      1.35412      .   S
    N171   C112      1.34517  1_655   S
    C104   C106      1.39099      .   S
    C105   C107      1.39080      .   S
    H26    C106      1.08928      .   S
    H27    C107      1.08913      .   S
    C135   C133      1.39915      .   S
    C135   C136      1.39625  1_655   S
    C106   C108      1.39479  1_565   S
    H44    C132      1.08944      .   S
    C134   C132      1.39917      .   S
    C134   C137      1.39642      .   S
    C107   C109      1.39463  1_565   S
    H45    C133      1.08943      .   S
    C113   H31       1.08878      .   S
    C113   C110      1.39613  1_565   S
    C112   H30       1.08889      .   S
    C112   C111      1.39596  1_465   S
    C133   C131      1.39476      .   S
    C132   C130      1.39488      .   S
    H46    C136      1.08892      .   S
    H47    C137      1.08885      .   S
    C109   C111      1.39888      .   S
    C109   H29       1.08947      .   S
    C108   C110      1.39904      .   S
    C108   H28       1.08951      .   S
    C136   N175      1.34548  1_455   S
    C137   N174      1.34565      .   S
    O194   C115      1.25600  1_455   S
    O92    C114      1.25693      .   S
    C110   C114      1.50018      .   S
    C111   C115      1.49974      .   S
    C131   H43       1.08917      .   S
    C131   C129      1.39059      .   S
    C130   H42       1.08964      .   S
    C130   C128      1.39086      .   S
    N175   C129      1.35396      .   S
    C129   H41       1.08935      .   S
    N174   C128      1.35393      .   S
    C128   H40       1.08926      .   S
    C115   O193      1.29397      .   S
    C114   O192      1.29339      .   S
    O181   C75       1.29344      .   S
    O180   C74       1.29352      .   S
    H9     C77       1.08912      .   S
    H8     C76       1.08930      .   S
    H4     C68       1.08947      .   S
    H5     C69       1.08948      .   S
    C75    O183      1.25692      .   S
    C75    C71       1.49986      .   S
    C74    O182      1.25665      .   S
    C74    C70       1.50043      .   S
    N167   C77       1.35414      .   S
    N167   C85       1.34571      .   S
    N166   C76       1.35433      .   S
    N166   C84       1.34568      .   S
    C77    C79       1.39080      .   S
    C76    C78       1.39098      .   S
    C68    C70       1.39917      .   S
    C69    C71       1.39900      .   S
    H15    C84       1.08835  1_655   S
    H14    C85       1.08891      .   S
    C79    H11       1.08920      .   S
    C78    H10       1.08929      .   S
