# CIF file generated by openbabel 2.4.90, see http://openbabel.sf.net
data_I
_chemical_name_common ''
_cell_length_a 14.233
_cell_length_b 15.7
_cell_length_c 15.696
_cell_angle_alpha 87.161
_cell_angle_beta 76.976
_cell_angle_gamma 76.979
_space_group_name_H-M_alt 'P 1'
_space_group_name_Hall 'P 1'
loop_
    _symmetry_equiv_pos_as_xyz
    x,y,z
loop_
    _atom_site_label
    _atom_site_type_symbol
    _atom_site_fract_x
    _atom_site_fract_y
    _atom_site_fract_z
    _atom_site_occupancy
    Zn0     Zn   0.56351   0.76314   0.73674   1.000
    Zn1     Zn   0.31269   0.23695   0.26311   1.000
    Zn2     Zn   0.81088   0.23688   0.26300   1.000
    Zn3     Zn   0.06975   0.73691   0.23687   1.000
    Zn4     Zn   0.56819   0.73689   0.23689   1.000
    Zn5     Zn   0.05401   0.26312   0.76307   1.000
    Zn6     Zn   0.55537   0.26311   0.76306   1.000
    Zn7     Zn   0.06175   0.76317   0.73683   1.000
