# CIF file generated by openbabel 2.4.90, see http://openbabel.sf.net
data_I
_chemical_name_common ''
_cell_length_a 15.37
_cell_length_b 20.104
_cell_length_c 17.697
_cell_angle_alpha 90
_cell_angle_beta 89.987
_cell_angle_gamma 89.999
_space_group_name_H-M_alt 'P 1'
_space_group_name_Hall 'P 1'
loop_
    _symmetry_equiv_pos_as_xyz
    x,y,z
loop_
    _atom_site_label
    _atom_site_type_symbol
    _atom_site_fract_x
    _atom_site_fract_y
    _atom_site_fract_z
    _atom_site_occupancy
    H0      H    0.48418   0.01859   0.87178   1.000
    H1      H    0.48418   0.51859   0.87178   1.000
    H2      H    0.98418   0.01859   0.87178   1.000
    H3      H    0.98418   0.51859   0.87178   1.000
    H4      H    0.21649   0.02149   0.82352   1.000
    H5      H    0.21649   0.52150   0.82352   1.000
    H6      H    0.71649   0.02149   0.82352   1.000
    H7      H    0.71649   0.52150   0.82352   1.000
    H8      H    0.26628   0.48114   0.37208   1.000
    H9      H    0.26628   0.98115   0.37208   1.000
    H10     H    0.76628   0.48114   0.37208   1.000
    H11     H    0.76629   0.98115   0.37208   1.000
    H12     H    0.03395   0.47875   0.32351   1.000
    H13     H    0.03395   0.97875   0.32351   1.000
    H14     H    0.53395   0.47875   0.32351   1.000
    H15     H    0.53396   0.97875   0.32351   1.000
    H16     H    0.01581   0.26859   0.12821   1.000
    H17     H    0.01581   0.76860   0.12821   1.000
    H18     H    0.51581   0.26859   0.12821   1.000
    H19     H    0.51581   0.76860   0.12821   1.000
    H20     H    0.28350   0.27150   0.17647   1.000
    H21     H    0.28350   0.77150   0.17647   1.000
    H22     H    0.78350   0.27150   0.17647   1.000
    H23     H    0.78350   0.77150   0.17647   1.000
    H24     H    0.23371   0.23114   0.62791   1.000
    H25     H    0.23371   0.73114   0.62791   1.000
    H26     H    0.73371   0.23114   0.62791   1.000
    H27     H    0.73371   0.73114   0.62791   1.000
    H28     H    0.46604   0.22874   0.67649   1.000
    H29     H    0.46605   0.72875   0.67649   1.000
    H30     H    0.96605   0.22874   0.67649   1.000
    H31     H    0.96605   0.72875   0.67649   1.000
    H32     H    0.01582   0.48142   0.12821   1.000
    H33     H    0.01582   0.98143   0.12821   1.000
    H34     H    0.51582   0.48142   0.12821   1.000
    H35     H    0.51582   0.98143   0.12821   1.000
    H36     H    0.28351   0.47851   0.17640   1.000
    H37     H    0.28351   0.97852   0.17640   1.000
    H38     H    0.78351   0.47851   0.17640   1.000
    H39     H    0.78351   0.97852   0.17640   1.000
    H40     H    0.23371   0.01886   0.62791   1.000
    H41     H    0.23371   0.51887   0.62791   1.000
    H42     H    0.73371   0.01886   0.62791   1.000
    H43     H    0.73371   0.51887   0.62791   1.000
    H44     H    0.46604   0.02126   0.67648   1.000
    H45     H    0.46604   0.52127   0.67648   1.000
    H46     H    0.96604   0.02126   0.67648   1.000
    H47     H    0.96604   0.52127   0.67648   1.000
    H48     H    0.48418   0.23142   0.87178   1.000
    H49     H    0.48418   0.73142   0.87178   1.000
    H50     H    0.98418   0.23142   0.87178   1.000
    H51     H    0.98418   0.73142   0.87178   1.000
    H52     H    0.21649   0.22851   0.82352   1.000
    H53     H    0.21649   0.72852   0.82352   1.000
    H54     H    0.71649   0.22851   0.82352   1.000
    H55     H    0.71649   0.72852   0.82352   1.000
    H56     H    0.26628   0.26887   0.37208   1.000
    H57     H    0.26628   0.76888   0.37208   1.000
    H58     H    0.76628   0.26887   0.37208   1.000
    H59     H    0.76628   0.76888   0.37208   1.000
    H60     H    0.03395   0.27126   0.32350   1.000
    H61     H    0.03395   0.77127   0.32350   1.000
    H62     H    0.53395   0.27126   0.32350   1.000
    H63     H    0.53395   0.77127   0.32350   1.000
    H64     H    0.27005   0.37501   0.92237   1.000
    H65     H    0.27005   0.87501   0.92237   1.000
    H66     H    0.77005   0.37501   0.92237   1.000
    H67     H    0.77005   0.87501   0.92237   1.000
    C68     C    0.56334   0.87501   0.93435   1.000
    C69     C    0.04963   0.12500   0.41320   1.000
    C70     C    0.04963   0.62501   0.41320   1.000
    C71     C    0.54963   0.12500   0.41320   1.000
    H72     H    0.00038   0.37500   0.96230   1.000
    H73     H    0.00038   0.87501   0.96230   1.000
    H74     H    0.50038   0.37500   0.96230   1.000
    H75     H    0.50038   0.87501   0.96230   1.000
    H76     H    0.47984   0.12500   0.42211   1.000
    H77     H    0.47984   0.62501   0.42211   1.000
    H78     H    0.97984   0.12500   0.42211   1.000
    H79     H    0.97985   0.62501   0.42211   1.000
    H80     H    0.24935   0.12500   0.46266   1.000
    H81     H    0.24935   0.62501   0.46266   1.000
    H82     H    0.74935   0.12500   0.46266   1.000
    H83     H    0.74935   0.62501   0.46266   1.000
    H84     H    0.22995   0.12500   0.07762   1.000
    H85     H    0.22995   0.62501   0.07762   1.000
    H86     H    0.72995   0.12500   0.07762   1.000
    H87     H    0.72995   0.62501   0.07762   1.000
    H88     H    0.49962   0.12500   0.03769   1.000
    H89     H    0.49962   0.62501   0.03769   1.000
    H90     H    0.99962   0.12500   0.03769   1.000
    H91     H    0.99962   0.62501   0.03769   1.000
    H92     H    0.02015   0.37500   0.57788   1.000
    H93     H    0.02015   0.87501   0.57788   1.000
    H94     H    0.52015   0.37500   0.57788   1.000
    H95     H    0.52015   0.87501   0.57788   1.000
    H96     H    0.25064   0.37500   0.53733   1.000
    H97     H    0.25064   0.87501   0.53733   1.000
    H98     H    0.75064   0.37500   0.53733   1.000
    H99     H    0.75064   0.87501   0.53733   1.000
    N100    N    0.09567   0.20197   0.19181   1.000
    N101    N    0.09567   0.70197   0.19181   1.000
    N102    N    0.59567   0.20197   0.19181   1.000
    N103    N    0.59567   0.70197   0.19181   1.000
    N104    N    0.06651   0.29691   0.70834   1.000
    C105    C    0.42020   0.00558   0.85041   1.000
    C106    C    0.42020   0.50559   0.85041   1.000
    C107    C    0.92020   0.00558   0.85041   1.000
    C108    C    0.92020   0.50559   0.85041   1.000
    C109    C    0.28442   0.00706   0.82470   1.000
    C110    C    0.28443   0.50706   0.82470   1.000
    C111    C    0.78443   0.00706   0.82470   1.000
    C112    C    0.78443   0.50706   0.82470   1.000
    C113    C    0.33019   0.49424   0.35061   1.000
    C114    C    0.33019   0.99425   0.35061   1.000
    C115    C    0.83019   0.49424   0.35061   1.000
    C116    C    0.83019   0.99425   0.35061   1.000
    C117    C    0.46596   0.49302   0.32483   1.000
    C118    C    0.46596   0.99303   0.32483   1.000
    C119    C    0.96596   0.49302   0.32483   1.000
    C120    C    0.96596   0.99303   0.32483   1.000
    C121    C    0.07979   0.25559   0.14958   1.000
    C122    C    0.07979   0.75559   0.14958   1.000
    C123    C    0.57979   0.25559   0.14958   1.000
    C124    C    0.57979   0.75559   0.14958   1.000
    C125    C    0.21556   0.25706   0.17522   1.000
    C126    C    0.21556   0.75706   0.17522   1.000
    C127    C    0.71556   0.25706   0.17522   1.000
    C128    C    0.71557   0.75706   0.17522   1.000
    C129    C    0.16981   0.24424   0.64938   1.000
    C130    C    0.16981   0.74425   0.64938   1.000
    C131    C    0.66980   0.24424   0.64938   1.000
    C132    C    0.66981   0.74425   0.64938   1.000
    C133    C    0.03404   0.24302   0.67516   1.000
    C134    C    0.03404   0.74303   0.67516   1.000
    C135    C    0.53404   0.24302   0.67516   1.000
    C136    C    0.53404   0.74303   0.67516   1.000
    C137    C    0.07980   0.49443   0.14958   1.000
    C138    C    0.07980   0.99443   0.14958   1.000
    C139    C    0.57980   0.49443   0.14958   1.000
    C140    C    0.57980   0.99443   0.14958   1.000
    C141    C    0.21557   0.49295   0.17522   1.000
    C142    C    0.21557   0.99296   0.17522   1.000
    C143    C    0.71557   0.49295   0.17522   1.000
    C144    C    0.71557   0.99296   0.17522   1.000
    C145    C    0.16980   0.00576   0.64938   1.000
    C146    C    0.16980   0.50577   0.64938   1.000
    C147    C    0.66980   0.00576   0.64938   1.000
    C148    C    0.66980   0.50577   0.64938   1.000
    C149    C    0.03403   0.00698   0.67516   1.000
    C150    C    0.03403   0.50699   0.67516   1.000
    C151    C    0.53403   0.00698   0.67516   1.000
    C152    C    0.53403   0.50699   0.67516   1.000
    C153    C    0.42020   0.24442   0.85041   1.000
    C154    C    0.42020   0.74443   0.85041   1.000
    C155    C    0.92020   0.24442   0.85041   1.000
    C156    C    0.92020   0.74443   0.85041   1.000
    C157    C    0.28443   0.24295   0.82470   1.000
    C158    C    0.28443   0.74296   0.82470   1.000
    C159    C    0.78443   0.24295   0.82470   1.000
    C160    C    0.78443   0.74296   0.82470   1.000
    C161    C    0.33019   0.25577   0.35061   1.000
    C162    C    0.33019   0.75577   0.35061   1.000
    C163    C    0.83019   0.25577   0.35061   1.000
    C164    C    0.83019   0.75577   0.35061   1.000
    C165    C    0.46596   0.25698   0.32483   1.000
    C166    C    0.46596   0.75699   0.32483   1.000
    C167    C    0.96596   0.25698   0.32483   1.000
    C168    C    0.96596   0.75699   0.32483   1.000
    C169    C    0.20030   0.37501   0.91329   1.000
    C170    C    0.20030   0.87501   0.91329   1.000
    C171    C    0.70030   0.37501   0.91329   1.000
    C172    C    0.70030   0.87501   0.91329   1.000
    C173    C    0.06334   0.37500   0.93435   1.000
    C174    C    0.06334   0.87501   0.93435   1.000
    C175    C    0.56334   0.37500   0.93435   1.000
    C176    C    0.54963   0.62501   0.41320   1.000
    C177    C    0.18649   0.12500   0.43456   1.000
    C178    C    0.18649   0.62501   0.43456   1.000
    C179    C    0.68649   0.12500   0.43456   1.000
    C180    C    0.68649   0.62501   0.43456   1.000
    C181    C    0.29970   0.12500   0.08670   1.000
    C182    C    0.29970   0.62501   0.08670   1.000
    C183    C    0.79970   0.12500   0.08670   1.000
    C184    C    0.79970   0.62501   0.08670   1.000
    C185    C    0.43665   0.12500   0.06564   1.000
    C186    C    0.43666   0.62501   0.06564   1.000
    C187    C    0.93665   0.12500   0.06564   1.000
    C188    C    0.93666   0.62501   0.06564   1.000
    C189    C    0.45037   0.37501   0.58679   1.000
    C190    C    0.45037   0.87501   0.58679   1.000
    C191    C    0.95037   0.37501   0.58679   1.000
    C192    C    0.95037   0.87501   0.58679   1.000
    C193    C    0.31351   0.37500   0.56543   1.000
    C194    C    0.31351   0.87501   0.56543   1.000
    C195    C    0.81351   0.37500   0.56543   1.000
    C196    C    0.81351   0.87501   0.56543   1.000
    N197    N    0.31667   0.45309   0.79150   1.000
    N198    N    0.31667   0.95310   0.79150   1.000
    N199    N    0.81667   0.45309   0.79150   1.000
    N200    N    0.81667   0.95310   0.79150   1.000
    N201    N    0.34667   0.04178   0.86247   1.000
    N202    N    0.34667   0.54179   0.86247   1.000
    N203    N    0.84667   0.04178   0.86247   1.000
    N204    N    0.84667   0.54179   0.86247   1.000
    N205    N    0.40432   0.45197   0.80817   1.000
    N206    N    0.40432   0.95198   0.80817   1.000
    N207    N    0.90432   0.45197   0.80817   1.000
    N208    N    0.90432   0.95198   0.80817   1.000
    N209    N    0.43349   0.04690   0.29165   1.000
    N210    N    0.43349   0.54691   0.29165   1.000
    N211    N    0.93349   0.04690   0.29165   1.000
    N212    N    0.93349   0.54691   0.29165   1.000
    N213    N    0.40387   0.45820   0.36261   1.000
    N214    N    0.40387   0.95821   0.36261   1.000
    N215    N    0.90387   0.45820   0.36261   1.000
    N216    N    0.90387   0.95821   0.36261   1.000
    N217    N    0.34587   0.04788   0.30833   1.000
    N218    N    0.34587   0.54789   0.30833   1.000
    N219    N    0.84586   0.04788   0.30833   1.000
    N220    N    0.84587   0.54789   0.30833   1.000
    N221    N    0.18332   0.20309   0.20841   1.000
    N222    N    0.18332   0.70309   0.20841   1.000
    N223    N    0.68332   0.20309   0.20841   1.000
    N224    N    0.68332   0.70309   0.20841   1.000
    N225    N    0.15332   0.29179   0.13752   1.000
    N226    N    0.15332   0.79179   0.13752   1.000
    N227    N    0.65332   0.29179   0.13752   1.000
    N228    N    0.65332   0.79179   0.13752   1.000
    N229    N    0.06651   0.79691   0.70834   1.000
    N230    N    0.56651   0.29691   0.70834   1.000
    N231    N    0.56651   0.79691   0.70834   1.000
    N232    N    0.09613   0.20820   0.63738   1.000
    N233    N    0.09613   0.70820   0.63738   1.000
    N234    N    0.59613   0.20820   0.63738   1.000
    N235    N    0.59613   0.70820   0.63738   1.000
    N236    N    0.15413   0.29788   0.69166   1.000
    N237    N    0.15413   0.79789   0.69166   1.000
    N238    N    0.65413   0.29788   0.69166   1.000
    N239    N    0.65413   0.79789   0.69166   1.000
    N240    N    0.18332   0.04692   0.20841   1.000
    N241    N    0.18333   0.54692   0.20841   1.000
    N242    N    0.68333   0.04692   0.20841   1.000
    N243    N    0.68333   0.54692   0.20841   1.000
    N244    N    0.15332   0.45822   0.13752   1.000
    N245    N    0.15332   0.95823   0.13752   1.000
    N246    N    0.65332   0.45822   0.13752   1.000
    N247    N    0.65332   0.95823   0.13752   1.000
    N248    N    0.09568   0.04804   0.19182   1.000
    N249    N    0.09568   0.54804   0.19182   1.000
    N250    N    0.59568   0.04804   0.19182   1.000
    N251    N    0.59568   0.54804   0.19182   1.000
    N252    N    0.06651   0.45310   0.70834   1.000
    N253    N    0.06651   0.95311   0.70834   1.000
    N254    N    0.56651   0.45310   0.70834   1.000
    N255    N    0.56651   0.95311   0.70834   1.000
    N256    N    0.09612   0.04181   0.63738   1.000
    N257    N    0.09613   0.54181   0.63738   1.000
    N258    N    0.59613   0.04181   0.63738   1.000
    N259    N    0.59613   0.54181   0.63738   1.000
    N260    N    0.15413   0.45213   0.69166   1.000
    N261    N    0.15413   0.95213   0.69166   1.000
    N262    N    0.65413   0.45213   0.69166   1.000
    N263    N    0.65413   0.95213   0.69166   1.000
    N264    N    0.31667   0.29692   0.79157   1.000
    N265    N    0.31667   0.79692   0.79157   1.000
    N266    N    0.81667   0.29692   0.79157   1.000
    N267    N    0.81667   0.79692   0.79157   1.000
    N268    N    0.34668   0.20822   0.86247   1.000
    N269    N    0.34668   0.70823   0.86247   1.000
    N270    N    0.84668   0.20822   0.86247   1.000
    N271    N    0.84668   0.70823   0.86247   1.000
    N272    N    0.40432   0.29804   0.80810   1.000
    N273    N    0.40432   0.79805   0.80817   1.000
    N274    N    0.90432   0.29804   0.80817   1.000
    N275    N    0.90432   0.79805   0.80817   1.000
    N276    N    0.43348   0.20310   0.29165   1.000
    N277    N    0.43348   0.70311   0.29165   1.000
    N278    N    0.93348   0.20310   0.29165   1.000
    N279    N    0.93348   0.70311   0.29165   1.000
    N280    N    0.40387   0.29181   0.36261   1.000
    N281    N    0.40387   0.79182   0.36261   1.000
    N282    N    0.90387   0.29181   0.36261   1.000
    N283    N    0.90387   0.79182   0.36261   1.000
    N284    N    0.34586   0.20212   0.30833   1.000
    N285    N    0.34586   0.70213   0.30833   1.000
    N286    N    0.84586   0.20212   0.30833   1.000
    N287    N    0.84586   0.70213   0.30833   1.000
    N288    N    0.16204   0.37501   0.84600   1.000
    N289    N    0.16204   0.87501   0.84600   1.000
    N290    N    0.66205   0.37501   0.84600   1.000
    N291    N    0.66205   0.87501   0.84600   1.000
    N292    N    0.07365   0.37500   0.85945   1.000
    N293    N    0.07365   0.87501   0.85945   1.000
    N294    N    0.57365   0.37501   0.85945   1.000
    N295    N    0.57365   0.87501   0.85945   1.000
    N296    N    0.14147   0.37501   0.97069   1.000
    N297    N    0.14147   0.87501   0.97069   1.000
    N298    N    0.64147   0.37501   0.97069   1.000
    N299    N    0.64147   0.87501   0.97069   1.000
    N300    N    0.08809   0.12500   0.34599   1.000
    N301    N    0.08809   0.62501   0.34599   1.000
    N302    N    0.58809   0.12500   0.34599   1.000
    N303    N    0.58809   0.62501   0.34599   1.000
    N304    N    0.17646   0.12500   0.35962   1.000
    N305    N    0.17646   0.62501   0.35962   1.000
    N306    N    0.67646   0.12500   0.35962   1.000
    N307    N    0.67646   0.62501   0.35962   1.000
    N308    N    0.10822   0.12500   0.47075   1.000
    N309    N    0.10822   0.62501   0.47075   1.000
    N310    N    0.60822   0.12500   0.47075   1.000
    N311    N    0.60822   0.62501   0.47075   1.000
    N312    N    0.33795   0.12500   0.15399   1.000
    N313    N    0.33795   0.62501   0.15399   1.000
    N314    N    0.83795   0.12500   0.15399   1.000
    N315    N    0.83795   0.62501   0.15399   1.000
    N316    N    0.42634   0.12500   0.14054   1.000
    N317    N    0.42634   0.62501   0.14054   1.000
    N318    N    0.92634   0.12500   0.14054   1.000
    N319    N    0.92634   0.62501   0.14054   1.000
    N320    N    0.35852   0.12500   0.02930   1.000
    N321    N    0.35852   0.62501   0.02930   1.000
    N322    N    0.85852   0.12500   0.02930   1.000
    N323    N    0.85852   0.62501   0.02930   1.000
    N324    N    0.41191   0.37500   0.65400   1.000
    N325    N    0.41191   0.87501   0.65400   1.000
    N326    N    0.91191   0.37500   0.65400   1.000
    N327    N    0.91191   0.87501   0.65400   1.000
    N328    N    0.32353   0.37500   0.64037   1.000
    N329    N    0.32354   0.87501   0.64037   1.000
    N330    N    0.82353   0.37500   0.64037   1.000
    N331    N    0.82354   0.87501   0.64037   1.000
    N332    N    0.39177   0.37500   0.52924   1.000
    N333    N    0.39177   0.87501   0.52924   1.000
    N334    N    0.89178   0.37500   0.52924   1.000
    N335    N    0.89178   0.87501   0.52924   1.000
    Cl336   Cl   0.16643   0.12501   0.92698   1.000
    Cl337   Cl   0.16643   0.62501   0.92698   1.000
    Cl338   Cl   0.66643   0.12501   0.92698   1.000
    Cl339   Cl   0.66643   0.62501   0.92698   1.000
    Cl340   Cl   0.08449   0.37500   0.42706   1.000
    Cl341   Cl   0.08450   0.87501   0.42706   1.000
    Cl342   Cl   0.58449   0.37500   0.42706   1.000
    Cl343   Cl   0.58450   0.87501   0.42706   1.000
    Cl344   Cl   0.33356   0.37500   0.07301   1.000
    Cl345   Cl   0.33357   0.87501   0.07301   1.000
    Cl346   Cl   0.83357   0.37500   0.07301   1.000
    Cl347   Cl   0.83357   0.87501   0.07301   1.000
    Cl348   Cl   0.41550   0.12501   0.57292   1.000
    Cl349   Cl   0.41550   0.62501   0.57292   1.000
    Cl350   Cl   0.91550   0.12501   0.57292   1.000
    Cl351   Cl   0.91550   0.62501   0.57292   1.000
loop_
    _geom_bond_atom_site_label_1
    _geom_bond_atom_site_label_2
    _geom_bond_distance
    _geom_bond_site_symmetry_2
    _ccdc_geom_bond_type
    N323   C188      1.36236      .   S
    N323   C184      1.35975      .   S
    N322   C187      1.36236      .   S
    N322   C183      1.35975      .   S
    N321   C186      1.36236      .   S
    N321   C182      1.35975      .   S
    N320   C185      1.36236      .   S
    N320   C181      1.35975      .   S
    H89    C186      1.08671      .   S
    H88    C185      1.08671      .   S
    H90    C187      1.08672      .   S
    H91    C188      1.08672      .   S
    C186   N317      1.33491      .   S
    C187   N318      1.33491      .   S
    C188   N319      1.33491      .   S
    C185   N316      1.33491      .   S
    H84    C181      1.08410      .   S
    H85    C182      1.08410      .   S
    H86    C183      1.08408      .   S
    H87    C184      1.08410      .   S
    C184   N315      1.32818      .   S
    C183   N314      1.32818      .   S
    C182   N313      1.32818      .   S
    C181   N312      1.32818      .   S
    H32    C137      1.08562      .   S
    H33    C138      1.08562      .   S
    H34    C139      1.08562      .   S
    H35    C140      1.08562      .   S
    H19    C124      1.08562      .   S
    H18    C123      1.08562      .   S
    H17    C122      1.08562      .   S
    H16    C121      1.08560      .   S
    N246   C139      1.36094      .   S
    N246   C143      1.35951      .   S
    N228   C124      1.36095      .   S
    N228   C128      1.35951      .   S
    N227   C123      1.36094      .   S
    N227   C127      1.35950      .   S
    N226   C122      1.36095      .   S
    N226   C126      1.35951      .   S
    N225   C121      1.36094      .   S
    N225   C125      1.35950      .   S
    N245   C138      1.36095      .   S
    N245   C142      1.35951      .   S
    N244   C137      1.36094      .   S
    N244   C141      1.35951      .   S
    N247   C140      1.36095      .   S
    N247   C144      1.35951      .   S
    N318   N314      1.37924      .   S
    N317   N313      1.37924      .   S
    N319   N315      1.37924      .   S
    N316   N312      1.37924      .   S
    C137   N249      1.33429      .   S
    C138   N248      1.33410  1_565   S
    C139   N251      1.33431      .   S
    C140   N250      1.33410  1_565   S
    C121   N100      1.33422      .   S
    C122   N101      1.33421      .   S
    C123   N102      1.33422      .   S
    C124   N103      1.33421      .   S
    C141   H36       1.08403      .   S
    C141   N241      1.32954      .   S
    C142   H37       1.08402      .   S
    C142   N240      1.32935  1_565   S
    C125   H20       1.08405      .   S
    C125   N221      1.32954      .   S
    C143   H38       1.08403      .   S
    C143   N243      1.32954      .   S
    C144   H39       1.08402      .   S
    C144   N242      1.32935  1_565   S
    C126   H21       1.08405      .   S
    C126   N222      1.32954      .   S
    C127   H22       1.08404      .   S
    C127   N223      1.32954      .   S
    C128   H23       1.08404      .   S
    C128   N224      1.32954      .   S
    N100   N221      1.37909      .   S
    N103   N224      1.37909      .   S
    N102   N223      1.37909      .   S
    N101   N222      1.37909      .   S
    N251   N243      1.37907      .   S
    N248   N240      1.37905      .   S
    N250   N242      1.37907      .   S
    N249   N241      1.37907      .   S
    N209   N217      1.37878      .   S
    N209   C118      1.32929  1_545   S
    N210   N218      1.37878      .   S
    N210   C117      1.32949      .   S
    N211   N219      1.37880      .   S
    N211   C120      1.32929  1_545   S
    N212   N220      1.37880      .   S
    N212   C119      1.32948      .   S
    N276   N284      1.37878      .   S
    N276   C165      1.32948      .   S
    N277   N285      1.37878      .   S
    N277   C166      1.32948      .   S
    N278   N286      1.37878      .   S
    N278   C167      1.32948      .   S
    N279   N287      1.37878      .   S
    N279   C168      1.32948      .   S
    N219   C116      1.33426  1_545   S
    N220   C115      1.33446      .   S
    N284   C161      1.33447      .   S
    N217   C114      1.33426  1_545   S
    N287   C164      1.33446      .   S
    N286   C163      1.33447      .   S
    N285   C162      1.33446      .   S
    N218   C113      1.33446      .   S
    H63    C166      1.08403      .   S
    H60    C167      1.08400  1_455   S
    H61    C168      1.08400  1_455   S
    H62    C165      1.08403      .   S
    H12    C119      1.08400  1_455   S
    H13    C120      1.08400  1_455   S
    H14    C117      1.08402      .   S
    H15    C118      1.08403      .   S
    C117   N213      1.35929      .   S
    C118   N214      1.35927      .   S
    C119   N215      1.35927      .   S
    C120   N216      1.35926      .   S
    C166   N281      1.35928      .   S
    C167   N282      1.35928      .   S
    C168   N283      1.35929      .   S
    C165   N280      1.35927      .   S
    N303   N307      1.37957      .   S
    N303   C176      1.32809      .   S
    N302   N306      1.37957      .   S
    N302   C71       1.32809      .   S
    N301   N305      1.37958      .   S
    N301   C70       1.32808      .   S
    N300   N304      1.37957      .   S
    N300   C69       1.32809      .   S
    C161   N280      1.36109      .   S
    C161   H56       1.08554      .   S
    C113   N213      1.36109      .   S
    C113   H8        1.08557      .   S
    C114   N214      1.36109      .   S
    C114   H9        1.08557      .   S
    C115   N215      1.36109      .   S
    C115   H10       1.08557      .   S
    C116   N216      1.36109      .   S
    C116   H11       1.08555      .   S
    C162   N281      1.36110      .   S
    C162   H57       1.08555      .   S
    C163   N282      1.36109      .   S
    C163   H58       1.08555      .   S
    C164   N283      1.36110      .   S
    C164   H59       1.08555      .   S
    N304   C177      1.33517      .   S
    N305   C178      1.33517      .   S
    N306   C179      1.33517      .   S
    N307   C180      1.33517      .   S
    C70    H79       1.08409  1_455   S
    C70    N309      1.35964      .   S
    C176   H77       1.08410      .   S
    C176   N311      1.35965      .   S
    C71    H76       1.08410      .   S
    C71    N310      1.35965      .   S
    C69    H78       1.08409  1_455   S
    C69    N308      1.35964      .   S
    C178   H81       1.08677      .   S
    C178   N309      1.36271      .   S
    C179   H82       1.08678      .   S
    C179   N310      1.36270      .   S
    C180   H83       1.08678      .   S
    C180   N311      1.36270      .   S
    C177   H80       1.08677      .   S
    C177   N308      1.36271      .   S
    N332   C193      1.36270      .   S
    N332   C189      1.35965      .   S
    N333   C194      1.36270      .   S
    N333   C190      1.35964      .   S
    N334   C195      1.36271      .   S
    N334   C191      1.35964      .   S
    N335   C196      1.36271      .   S
    N335   C192      1.35964      .   S
    H97    C194      1.08678      .   S
    H96    C193      1.08678      .   S
    H98    C195      1.08677      .   S
    H99    C196      1.08677      .   S
    C196   N331      1.33517      .   S
    C193   N328      1.33517      .   S
    C194   N329      1.33517      .   S
    C195   N330      1.33517      .   S
    H95    C190      1.08412      .   S
    H94    C189      1.08410      .   S
    H93    C192      1.08409  1_455   S
    H92    C191      1.08409  1_455   S
    C191   N326      1.32808      .   S
    C192   N327      1.32808      .   S
    C190   N325      1.32808      .   S
    C189   N324      1.32809      .   S
    H43    C148      1.08557      .   S
    H42    C147      1.08557      .   S
    H41    C146      1.08555      .   S
    H40    C145      1.08555      .   S
    H24    C129      1.08554      .   S
    H27    C132      1.08554      .   S
    H26    C131      1.08554      .   S
    H25    C130      1.08554      .   S
    N232   C129      1.36109      .   S
    N232   C133      1.35928      .   S
    N235   C132      1.36109      .   S
    N235   C136      1.35927      .   S
    N234   C131      1.36109      .   S
    N234   C135      1.35927      .   S
    N233   C130      1.36109      .   S
    N233   C134      1.35928      .   S
    N257   C146      1.36109      .   S
    N257   C150      1.35927      .   S
    N258   C147      1.36108      .   S
    N258   C151      1.35927      .   S
    N259   C148      1.36108      .   S
    N259   C152      1.35929      .   S
    N256   C145      1.36109      .   S
    N256   C149      1.35927      .   S
    N331   N327      1.37958      .   S
    N329   N325      1.37957      .   S
    N330   N326      1.37958      .   S
    N328   N324      1.37957      .   S
    C132   N239      1.33447      .   S
    C131   N238      1.33447      .   S
    C130   N237      1.33447      .   S
    C129   N236      1.33447      .   S
    C148   N262      1.33446      .   S
    C145   N261      1.33426  1_545   S
    C146   N260      1.33446      .   S
    C147   N263      1.33426  1_545   S
    C134   H31       1.08400  1_455   S
    C134   N229      1.32948      .   S
    C151   H44       1.08403      .   S
    C151   N255      1.32929  1_545   S
    C150   H47       1.08400  1_455   S
    C150   N252      1.32948      .   S
    C149   H46       1.08400  1_455   S
    C149   N253      1.32929  1_545   S
    C136   H29       1.08403      .   S
    C136   N231      1.32948      .   S
    C135   H28       1.08403      .   S
    C135   N230      1.32948      .   S
    C133   H30       1.08400  1_455   S
    C133   N104      1.32948      .   S
    C152   H45       1.08402      .   S
    C152   N254      1.32949      .   S
    N237   N229      1.37878      .   S
    N260   N252      1.37879      .   S
    N261   N253      1.37879      .   S
    N239   N231      1.37877      .   S
    N238   N230      1.37878      .   S
    N236   N104      1.37878      .   S
    N262   N254      1.37878      .   S
    N263   N255      1.37878      .   S
    N198   N206      1.37937      .   S
    N198   C109      1.32942  1_565   S
    N197   N205      1.37937      .   S
    N197   C110      1.32962      .   S
    N199   N207      1.37937      .   S
    N199   C112      1.32962      .   S
    N200   N208      1.37937      .   S
    N200   C111      1.32942  1_565   S
    N264   N272      1.37883      .   S
    N264   C157      1.32907      .   S
    N265   N273      1.37909      .   S
    N265   C158      1.32907      .   S
    N266   N274      1.37909      .   S
    N266   C159      1.32907      .   S
    N267   N275      1.37909      .   S
    N267   C160      1.32907      .   S
    N272   C153      1.33502      .   S
    N207   C108      1.33431      .   S
    N275   C156      1.33431      .   S
    N274   C155      1.33432      .   S
    N273   C154      1.33431      .   S
    N208   C107      1.33411  1_565   S
    N206   C105      1.33411  1_565   S
    N205   C106      1.33431      .   S
    H52    C157      1.08401      .   S
    H55    C160      1.08401      .   S
    H54    C159      1.08401      .   S
    H53    C158      1.08401      .   S
    H7     C112      1.08403      .   S
    H6     C111      1.08402      .   S
    H5     C110      1.08403      .   S
    H4     C109      1.08402      .   S
    C158   N269      1.36011      .   S
    C157   N268      1.36011      .   S
    C112   N204      1.36011      .   S
    C111   N203      1.36011      .   S
    C110   N202      1.36011      .   S
    C109   N201      1.36011      .   S
    C159   N270      1.36011      .   S
    C160   N271      1.36011      .   S
    N290   N294      1.37926      .   S
    N290   C171      1.32817      .   S
    N291   N295      1.37924      .   S
    N291   C172      1.32818      .   S
    N289   N293      1.37924      .   S
    N289   C170      1.32818      .   S
    N288   N292      1.37924      .   S
    N288   C169      1.32818      .   S
    C106   N202      1.36094      .   S
    C106   H1        1.08562      .   S
    C107   N203      1.36094      .   S
    C107   H2        1.08562      .   S
    C108   N204      1.36094      .   S
    C108   H3        1.08562      .   S
    C105   N201      1.36094      .   S
    C105   H0        1.08562      .   S
    C153   N268      1.36095      .   S
    C153   H48       1.08560      .   S
    C154   N269      1.36096      .   S
    C154   H49       1.08561      .   S
    C156   N271      1.36095      .   S
    C156   H51       1.08561      .   S
    C155   N270      1.36094      .   S
    C155   H50       1.08562      .   S
    N295   C68       1.33491      .   S
    N294   C175      1.33491      .   S
    N293   C174      1.33491      .   S
    N292   C173      1.33491      .   S
    C171   H66       1.08410      .   S
    C171   N298      1.35974      .   S
    C170   H65       1.08410      .   S
    C170   N297      1.35975      .   S
    C169   H64       1.08410      .   S
    C169   N296      1.35975      .   S
    C172   H67       1.08410      .   S
    C172   N299      1.35975      .   S
    C174   H73       1.08672      .   S
    C174   N297      1.36236      .   S
    C68    H75       1.08671      .   S
    C68    N299      1.36236      .   S
    C175   H74       1.08671      .   S
    C175   N298      1.36238      .   S
    C173   H72       1.08672      .   S
    C173   N296      1.36236      .   S
