# CIF file generated by openbabel 2.4.90, see http://openbabel.sf.net
data_I
_chemical_name_common ''
_cell_length_a 15.37
_cell_length_b 20.104
_cell_length_c 17.697
_cell_angle_alpha 90
_cell_angle_beta 89.987
_cell_angle_gamma 89.999
_space_group_name_H-M_alt 'P 1'
_space_group_name_Hall 'P 1'
loop_
    _symmetry_equiv_pos_as_xyz
    x,y,z
loop_
    _atom_site_label
    _atom_site_type_symbol
    _atom_site_fract_x
    _atom_site_fract_y
    _atom_site_fract_z
    _atom_site_occupancy
    Zr0     Zr   0.23775   0.37500   0.73720   1.000
    Zr1     Zr   0.23775   0.87501   0.73720   1.000
    Zr2     Zr   0.73775   0.37500   0.73720   1.000
    Zr3     Zr   0.73775   0.87501   0.73720   1.000
    Zr4     Zr   0.01147   0.12500   0.23725   1.000
    Zr5     Zr   0.01147   0.62501   0.23725   1.000
    Zr6     Zr   0.51147   0.12500   0.23725   1.000
    Zr7     Zr   0.51147   0.62501   0.23725   1.000
    Zr8     Zr   0.26224   0.12500   0.26279   1.000
    Zr9     Zr   0.26224   0.62501   0.26279   1.000
    Zr10    Zr   0.76224   0.12500   0.26279   1.000
    Zr11    Zr   0.76224   0.62501   0.26279   1.000
    Zr12    Zr   0.48853   0.37500   0.76273   1.000
    Zr13    Zr   0.48853   0.87501   0.76273   1.000
    Zr14    Zr   0.98853   0.37500   0.76273   1.000
    Zr15    Zr   0.98853   0.87501   0.76273   1.000
    Zr16    Zr   0.31494   0.12500   0.92159   1.000
    Zr17    Zr   0.31494   0.62501   0.92159   1.000
    Zr18    Zr   0.81494   0.12500   0.92159   1.000
    Zr19    Zr   0.81494   0.62501   0.92159   1.000
    Zr20    Zr   0.43619   0.37500   0.42169   1.000
    Zr21    Zr   0.43619   0.87501   0.42169   1.000
    Zr22    Zr   0.93619   0.37500   0.42169   1.000
    Zr23    Zr   0.93619   0.87501   0.42169   1.000
    Zr24    Zr   0.18506   0.37500   0.07840   1.000
    Zr25    Zr   0.18506   0.87501   0.07840   1.000
    Zr26    Zr   0.68506   0.37500   0.07840   1.000
    Zr27    Zr   0.68506   0.87501   0.07840   1.000
    Zr28    Zr   0.06380   0.12500   0.57830   1.000
    Zr29    Zr   0.06381   0.62501   0.57830   1.000
    Zr30    Zr   0.56380   0.12500   0.57830   1.000
    Zr31    Zr   0.56381   0.62501   0.57830   1.000
    Zr32    Zr   0.16643   0.12501   0.92698   1.000
    Zr33    Zr   0.16643   0.62501   0.92698   1.000
    Zr34    Zr   0.66643   0.12501   0.92698   1.000
    Zr35    Zr   0.66643   0.62501   0.92698   1.000
    Zr36    Zr   0.08449   0.37500   0.42706   1.000
    Zr37    Zr   0.08450   0.87501   0.42706   1.000
    Zr38    Zr   0.58449   0.37500   0.42706   1.000
    Zr39    Zr   0.58450   0.87501   0.42706   1.000
    Zr40    Zr   0.33356   0.37500   0.07301   1.000
    Zr41    Zr   0.33357   0.87501   0.07301   1.000
    Zr42    Zr   0.83357   0.37500   0.07301   1.000
    Zr43    Zr   0.83357   0.87501   0.07301   1.000
    Zr44    Zr   0.41550   0.12501   0.57292   1.000
    Zr45    Zr   0.41550   0.62501   0.57292   1.000
    Zr46    Zr   0.91550   0.12501   0.57292   1.000
    Zr47    Zr   0.91550   0.62501   0.57292   1.000
    O48     O    0.75931   0.87501   0.07571   1.000
    O49     O    0.75931   0.37500   0.07571   1.000
    O50     O    0.25931   0.87501   0.07571   1.000
    O51     O    0.25931   0.37500   0.07571   1.000
    O52     O    0.01034   0.87501   0.42438   1.000
    O53     O    0.51034   0.37500   0.42438   1.000
    O54     O    0.51034   0.87501   0.42438   1.000
    O55     O    0.01034   0.37500   0.42438   1.000
    O56     O    0.98965   0.62501   0.57561   1.000
    O57     O    0.48965   0.12500   0.57561   1.000
    O58     O    0.48965   0.62501   0.57561   1.000
    O59     O    0.98965   0.12500   0.57561   1.000
    O60     O    0.74069   0.62501   0.92429   1.000
    O61     O    0.74068   0.12500   0.92429   1.000
    O62     O    0.24068   0.62501   0.92429   1.000
    O63     O    0.24068   0.12500   0.92429   1.000
    C64     C    0.86982   0.62501   0.08450   1.000
    O65     O    0.85328   0.62501   0.02997   1.000
    O66     O    0.83496   0.62501   0.14644   1.000
    O67     O    0.91936   0.62501   0.13670   1.000
    C68     C    0.86982   0.12500   0.08450   1.000
    O69     O    0.85327   0.12500   0.02997   1.000
    O70     O    0.83496   0.12500   0.14644   1.000
    O71     O    0.91936   0.12500   0.13670   1.000
    C72     C    0.36982   0.12500   0.08450   1.000
    O73     O    0.33496   0.12500   0.14644   1.000
    O74     O    0.35327   0.12500   0.02997   1.000
    O75     O    0.41936   0.12500   0.13670   1.000
    C76     C    0.10291   0.99999   0.66662   1.000
    O77     O    0.09144   0.04170   0.63723   1.000
    O78     O    0.06521   0.95702   0.70108   1.000
    O79     O    0.14942   0.95678   0.69052   1.000
    C80     C    0.10291   0.25002   0.66662   1.000
    O81     O    0.09144   0.20831   0.63723   1.000
    O82     O    0.06522   0.29299   0.70108   1.000
    O83     O    0.14943   0.29323   0.69052   1.000
    C84     C    0.60291   0.75002   0.66662   1.000
    O85     O    0.56522   0.79299   0.70108   1.000
    O86     O    0.64943   0.79324   0.69052   1.000
    O87     O    0.59144   0.70832   0.63723   1.000
    C88     C    0.60291   0.25002   0.66662   1.000
    O89     O    0.56522   0.29299   0.70108   1.000
    O90     O    0.59144   0.20831   0.63723   1.000
    O91     O    0.64943   0.29323   0.69052   1.000
    C92     C    0.10291   0.75002   0.66662   1.000
    O93     O    0.06522   0.79299   0.70108   1.000
    O94     O    0.09144   0.70832   0.63723   1.000
    O95     O    0.14943   0.79324   0.69052   1.000
    C96     C    0.64672   0.50007   0.16674   1.000
    O97     O    0.68475   0.54302   0.20117   1.000
    O98     O    0.65795   0.45834   0.13735   1.000
    O99     O    0.60014   0.54330   0.19064   1.000
    C100    C    0.39709   0.00002   0.33337   1.000
    O101    O    0.43478   0.04299   0.29891   1.000
    O102    O    0.40856   0.95832   0.36276   1.000
    O103    O    0.35057   0.04323   0.30947   1.000
    C104    C    0.89709   0.50002   0.33337   1.000
    O105    O    0.90856   0.45831   0.36276   1.000
    O106    O    0.93478   0.54299   0.29891   1.000
    O107    O    0.85057   0.54323   0.30947   1.000
    C108    C    0.39708   0.24999   0.33337   1.000
    O109    O    0.35057   0.20678   0.30947   1.000
    O110    O    0.43478   0.20702   0.29891   1.000
    O111    O    0.40856   0.29170   0.36276   1.000
    C112    C    0.88027   0.37500   0.58443   1.000
    O113    O    0.89713   0.37500   0.52995   1.000
    O114    O    0.91524   0.37500   0.64640   1.000
    O115    O    0.83046   0.37500   0.63661   1.000
    C116    C    0.88027   0.87501   0.58443   1.000
    O117    O    0.91524   0.87501   0.64640   1.000
    O118    O    0.83046   0.87501   0.63661   1.000
    O119    O    0.89713   0.87501   0.52995   1.000
    C120    C    0.38027   0.87501   0.58443   1.000
    O121    O    0.39713   0.87501   0.52995   1.000
    O122    O    0.41524   0.87501   0.64640   1.000
    O123    O    0.33046   0.87501   0.63661   1.000
    C124    C    0.38027   0.37500   0.58443   1.000
    O125    O    0.39713   0.37500   0.52995   1.000
    O126    O    0.41524   0.37500   0.64640   1.000
    O127    O    0.33046   0.37500   0.63661   1.000
    C128    C    0.60291   0.49999   0.66662   1.000
    O129    O    0.59144   0.54170   0.63723   1.000
    O130    O    0.56521   0.45702   0.70108   1.000
    O131    O    0.64942   0.45678   0.69052   1.000
    C132    C    0.60291   0.99999   0.66662   1.000
    O133    O    0.64942   0.95678   0.69052   1.000
    O134    O    0.56521   0.95702   0.70108   1.000
    O135    O    0.59144   0.04170   0.63723   1.000
    C136    C    0.10291   0.49999   0.66662   1.000
    O137    O    0.09144   0.54170   0.63723   1.000
    O138    O    0.06521   0.45702   0.70108   1.000
    O139    O    0.14942   0.45678   0.69052   1.000
    C140    C    0.14671   0.74994   0.16675   1.000
    O141    O    0.15795   0.79167   0.13735   1.000
    O142    O    0.18475   0.70700   0.20117   1.000
    O143    O    0.10014   0.70672   0.19064   1.000
    C144    C    0.11973   0.12500   0.41556   1.000
    O145    O    0.10287   0.12500   0.47004   1.000
    O146    O    0.16954   0.12500   0.36338   1.000
    O147    O    0.08475   0.12500   0.35359   1.000
    C148    C    0.13018   0.37500   0.91549   1.000
    O149    O    0.16504   0.37500   0.85355   1.000
    O150    O    0.08063   0.37500   0.86329   1.000
    O151    O    0.14672   0.37500   0.97002   1.000
    C152    C    0.13018   0.87501   0.91549   1.000
    O153    O    0.08063   0.87501   0.86329   1.000
    O154    O    0.16504   0.87501   0.85355   1.000
    O155    O    0.14672   0.87501   0.97002   1.000
    C156    C    0.35328   0.99994   0.83322   1.000
    O157    O    0.31524   0.95700   0.79879   1.000
    O158    O    0.34204   0.04167   0.86263   1.000
    O159    O    0.39985   0.95672   0.80934   1.000
    C160    C    0.35328   0.49994   0.83322   1.000
    O161    O    0.31524   0.45699   0.79879   1.000
    O162    O    0.39985   0.45671   0.80934   1.000
    O163    O    0.34204   0.54167   0.86263   1.000
    C164    C    0.85328   0.99994   0.83322   1.000
    O165    O    0.81525   0.95700   0.79879   1.000
    O166    O    0.89985   0.95672   0.80934   1.000
    O167    O    0.84204   0.04167   0.86263   1.000
    C168    C    0.64671   0.24994   0.16675   1.000
    O169    O    0.68475   0.20699   0.20117   1.000
    O170    O    0.65795   0.29167   0.13735   1.000
    O171    O    0.60014   0.20671   0.19064   1.000
    C172    C    0.64671   0.74994   0.16675   1.000
    O173    O    0.65795   0.79167   0.13735   1.000
    O174    O    0.68475   0.70700   0.20117   1.000
    O175    O    0.60014   0.70672   0.19064   1.000
    C176    C    0.14672   0.00007   0.16674   1.000
    O177    O    0.15795   0.95835   0.13735   1.000
    O178    O    0.10014   0.04330   0.19064   1.000
    O179    O    0.18475   0.04302   0.20117   1.000
    C180    C    0.85328   0.49994   0.83322   1.000
    O181    O    0.81524   0.45699   0.79879   1.000
    O182    O    0.84204   0.54167   0.86263   1.000
    O183    O    0.89985   0.45671   0.80934   1.000
    C184    C    0.14671   0.24994   0.16675   1.000
    O185    O    0.10014   0.20671   0.19064   1.000
    O186    O    0.15795   0.29167   0.13735   1.000
    O187    O    0.18475   0.20699   0.20117   1.000
    C188    C    0.14672   0.50007   0.16674   1.000
    O189    O    0.15795   0.45834   0.13735   1.000
    O190    O    0.18475   0.54302   0.20117   1.000
    O191    O    0.10014   0.54330   0.19064   1.000
    C192    C    0.89709   0.00002   0.33337   1.000
    O193    O    0.93478   0.04299   0.29891   1.000
    O194    O    0.90856   0.95832   0.36276   1.000
    O195    O    0.85057   0.04323   0.30947   1.000
    C196    C    0.39709   0.50002   0.33337   1.000
    O197    O    0.43478   0.54299   0.29891   1.000
    O198    O    0.40856   0.45831   0.36276   1.000
    O199    O    0.35057   0.54323   0.30947   1.000
    C200    C    0.89708   0.24999   0.33337   1.000
    O201    O    0.93478   0.20702   0.29891   1.000
    O202    O    0.90856   0.29170   0.36276   1.000
    O203    O    0.85057   0.20678   0.30947   1.000
    C204    C    0.89708   0.74999   0.33337   1.000
    O205    O    0.93478   0.70703   0.29891   1.000
    O206    O    0.85057   0.70678   0.30947   1.000
    O207    O    0.90856   0.79170   0.36276   1.000
    C208    C    0.35328   0.25007   0.83322   1.000
    O209    O    0.31525   0.29301   0.79880   1.000
    O210    O    0.39985   0.29329   0.80932   1.000
    O211    O    0.34205   0.20834   0.86263   1.000
    C212    C    0.11973   0.62501   0.41556   1.000
    O213    O    0.16954   0.62501   0.36338   1.000
    O214    O    0.10287   0.62501   0.47004   1.000
    O215    O    0.08475   0.62501   0.35359   1.000
    C216    C    0.61973   0.12500   0.41556   1.000
    O217    O    0.66954   0.12500   0.36338   1.000
    O218    O    0.60287   0.12500   0.47004   1.000
    O219    O    0.58475   0.12500   0.35359   1.000
    C220    C    0.64672   0.00007   0.16674   1.000
    O221    O    0.65795   0.95835   0.13735   1.000
    O222    O    0.60014   0.04330   0.19064   1.000
    O223    O    0.68475   0.04302   0.20117   1.000
    C224    C    0.63018   0.37501   0.91549   1.000
    O225    O    0.66504   0.37500   0.85355   1.000
    O226    O    0.58063   0.37500   0.86329   1.000
    O227    O    0.64672   0.37500   0.97002   1.000
    C228    C    0.63018   0.87501   0.91549   1.000
    O229    O    0.66504   0.87501   0.85355   1.000
    O230    O    0.58063   0.87501   0.86329   1.000
    O231    O    0.64672   0.87501   0.97002   1.000
    C232    C    0.35328   0.75007   0.83323   1.000
    O233    O    0.34205   0.70835   0.86263   1.000
    O234    O    0.39985   0.79330   0.80934   1.000
    O235    O    0.31525   0.79302   0.79881   1.000
    C236    C    0.61973   0.62501   0.41556   1.000
    O237    O    0.66954   0.62501   0.36338   1.000
    O238    O    0.60287   0.62501   0.47004   1.000
    O239    O    0.58475   0.62501   0.35359   1.000
    C240    C    0.85328   0.75007   0.83323   1.000
    O241    O    0.89986   0.79330   0.80934   1.000
    O242    O    0.84205   0.70835   0.86263   1.000
    O243    O    0.81525   0.79302   0.79881   1.000
    C244    C    0.36982   0.62501   0.08450   1.000
    O245    O    0.35328   0.62501   0.02997   1.000
    O246    O    0.33496   0.62501   0.14644   1.000
    O247    O    0.41936   0.62501   0.13670   1.000
    C248    C    0.85328   0.25007   0.83323   1.000
    O249    O    0.89985   0.29329   0.80934   1.000
    O250    O    0.84205   0.20834   0.86263   1.000
    O251    O    0.81525   0.29301   0.79881   1.000
    C252    C    0.39708   0.74999   0.33337   1.000
    O253    O    0.35057   0.70678   0.30947   1.000
    O254    O    0.43478   0.70703   0.29891   1.000
    O255    O    0.40856   0.79170   0.36276   1.000
loop_
    _geom_bond_atom_site_label_1
    _geom_bond_atom_site_label_2
    _geom_bond_distance
    _geom_bond_site_symmetry_2
    _ccdc_geom_bond_type
    Zr43   O48       1.14228      .   S
    Zr27   O48       1.14228      .   S
    Zr42   O49       1.14228      .   S
    Zr26   O49       1.14228      .   S
    Zr41   O50       1.14228      .   S
    Zr25   O50       1.14228      .   S
    Zr40   O51       1.14228      .   S
    Zr24   O51       1.14228      .   S
    Zr23   O52       1.14072  1_655   S
    Zr37   O52       1.14072      .   S
    Zr20   O53       1.14072      .   S
    Zr38   O53       1.14072      .   S
    Zr21   O54       1.14072      .   S
    Zr39   O54       1.14072      .   S
    Zr22   O55       1.14072  1_655   S
    Zr36   O55       1.14072      .   S
    Zr47   O56       1.14072      .   S
    Zr29   O56       1.14072  1_455   S
    Zr44   O57       1.14073      .   S
    Zr30   O57       1.14073      .   S
    Zr45   O58       1.14073      .   S
    Zr31   O58       1.14073      .   S
    Zr46   O59       1.14072      .   S
    Zr28   O59       1.14072  1_455   S
    Zr19   O60       1.14228      .   S
    Zr35   O60       1.14228      .   S
    Zr18   O61       1.14228      .   S
    Zr34   O61       1.14228      .   S
    Zr17   O62       1.14228      .   S
    Zr33   O62       1.14228      .   S
    Zr16   O63       1.14228      .   S
    Zr32   O63       1.14228      .   S
    C64    O65       0.99794      .   S
    Zr19   O65       2.00661  1_556   S
    C64    O66       1.22009      .   S
    Zr11   O66       2.34252      .   S
    C64    O67       1.19729      .   S
    Zr5    O67       2.27416  1_455   S
    C68    O69       0.99794      .   S
    Zr18   O69       2.00661  1_556   S
    C68    O70       1.22009      .   S
    Zr10   O70       2.34253      .   S
    C68    O71       1.19729      .   S
    Zr4    O71       2.27416  1_455   S
    C72    O73       1.22009      .   S
    Zr8    O73       2.34253      .   S
    C72    O74       0.99795      .   S
    Zr16   O74       2.00662  1_556   S
    C72    O75       1.19729      .   S
    Zr6    O75       2.27416      .   S
    C76    O77       1.00233  1_565   S
    Zr28   O77       2.01816      .   S
    C76    O78       1.20560      .   S
    Zr15   O78       2.30167  1_655   S
    C76    O79       1.20202      .   S
    Zr1    O79       2.28653      .   S
    C80    O81       1.00237      .   S
    Zr28   O81       2.01821      .   S
    C80    O82       1.20565      .   S
    Zr14   O82       2.30171  1_655   S
    C80    O83       1.20208      .   S
    Zr0    O83       2.28659      .   S
    C84    O85       1.20565      .   S
    Zr13   O85       2.30173      .   S
    C84    O86       1.20209      .   S
    Zr3    O86       2.28661      .   S
    C84    O87       1.00237      .   S
    Zr31   O87       2.01821      .   S
    C88    O89       1.20565      .   S
    Zr12   O89       2.30172      .   S
    C88    O90       1.00237      .   S
    Zr30   O90       2.01821      .   S
    C88    O91       1.20209      .   S
    Zr2    O91       2.28659      .   S
    C92    O93       1.20565      .   S
    Zr15   O93       2.30173  1_655   S
    C92    O94       1.00237      .   S
    Zr29   O94       2.01821      .   S
    C92    O95       1.20209      .   S
    Zr1    O95       2.28660      .   S
    C96    O97       1.20776      .   S
    Zr11   O97       2.30772      .   S
    C96    O98       1.00202      .   S
    Zr26   O98       2.01710      .   S
    C96    O99       1.20264      .   S
    Zr7    O99       2.28824      .   S
    C100   O101      1.20562      .   S
    Zr6    O101      2.30174      .   S
    C100   O102      1.00234  1_545   S
    Zr21   O102      2.01817      .   S
    C100   O103      1.20203      .   S
    Zr8    O103      2.28654      .   S
    C104   O105      1.00236      .   S
    Zr22   O105      2.01819      .   S
    C104   O106      1.20569      .   S
    Zr5    O106      2.30181  1_455   S
    C104   O107      1.20208      .   S
    Zr11   O107      2.28659      .   S
    C108   O109      1.20209      .   S
    Zr8    O109      2.28660      .   S
    C108   O110      1.20567      .   S
    Zr6    O110      2.30178      .   S
    C108   O111      1.00237      .   S
    Zr20   O111      2.01821      .   S
    C112   O113      0.99836      .   S
    Zr22   O113      2.00762      .   S
    C112   O114      1.22138      .   S
    Zr14   O114      2.34693      .   S
    C112   O115      1.19935      .   S
    Zr2    O115      2.27992      .   S
    C116   O117      1.22138      .   S
    Zr15   O117      2.34692      .   S
    C116   O118      1.19935      .   S
    Zr3    O118      2.27992      .   S
    C116   O119      0.99836      .   S
    Zr23   O119      2.00762      .   S
    C120   O121      0.99836      .   S
    Zr21   O121      2.00762      .   S
    C120   O122      1.22138      .   S
    Zr13   O122      2.34693      .   S
    C120   O123      1.19935      .   S
    Zr1    O123      2.27992      .   S
    C124   O125      0.99836      .   S
    Zr20   O125      2.00762      .   S
    C124   O126      1.22138      .   S
    Zr12   O126      2.34693      .   S
    C124   O127      1.19935      .   S
    Zr0    O127      2.27992      .   S
    C128   O129      1.00236      .   S
    Zr31   O129      2.01819      .   S
    C128   O130      1.20567      .   S
    Zr12   O130      2.30175      .   S
    C128   O131      1.20208      .   S
    Zr2    O131      2.28660      .   S
    C132   O133      1.20202      .   S
    Zr3    O133      2.28653      .   S
    C132   O134      1.20560      .   S
    Zr13   O134      2.30167      .   S
    C132   O135      1.00233  1_565   S
    Zr30   O135      2.01816      .   S
    C136   O137      1.00236      .   S
    Zr29   O137      2.01819      .   S
    C136   O138      1.20567      .   S
    Zr14   O138      2.30174  1_655   S
    C136   O139      1.20208      .   S
    Zr0    O139      2.28659      .   S
    C140   O141      1.00206      .   S
    Zr25   O141      2.01714      .   S
    C140   O142      1.20771      .   S
    Zr9    O142      2.30767      .   S
    C140   O143      1.20260      .   S
    Zr5    O143      2.28823      .   S
    C144   O145      0.99836      .   S
    Zr28   O145      2.00762      .   S
    C144   O146      1.19935      .   S
    Zr8    O146      2.27992      .   S
    C144   O147      1.22142      .   S
    Zr4    O147      2.34704      .   S
    C148   O149      1.22009      .   S
    Zr0    O149      2.34252      .   S
    C148   O150      1.19732      .   S
    Zr14   O150      2.27426  1_655   S
    C148   O151      0.99795      .   S
    Zr24   O151      2.00662  1_554   S
    C152   O153      1.19732      .   S
    Zr15   O153      2.27427  1_655   S
    C152   O154      1.22009      .   S
    Zr1    O154      2.34252      .   S
    C152   O155      0.99794      .   S
    Zr25   O155      2.00661  1_554   S
    C156   O157      1.20773      .   S
    Zr1    O157      2.30734      .   S
    C156   O158      1.00214  1_565   S
    Zr16   O158      2.01721      .   S
    C156   O159      1.20250      .   S
    Zr13   O159      2.28812      .   S
    C160   O161      1.20780      .   S
    Zr0    O161      2.30742      .   S
    C160   O162      1.20256      .   S
    Zr12   O162      2.28819      .   S
    C160   O163      1.00216      .   S
    Zr17   O163      2.01724      .   S
    C164   O165      1.20773      .   S
    Zr3    O165      2.30734      .   S
    C164   O166      1.20250      .   S
    Zr15   O166      2.28811      .   S
    C164   O167      1.00214  1_565   S
    Zr18   O167      2.01721      .   S
    C168   O169      1.20771      .   S
    Zr10   O169      2.30766      .   S
    C168   O170      1.00206      .   S
    Zr26   O170      2.01715      .   S
    C168   O171      1.20261      .   S
    Zr6    O171      2.28823      .   S
    C172   O173      1.00206      .   S
    Zr27   O173      2.01714      .   S
    C172   O174      1.20771      .   S
    Zr11   O174      2.30767      .   S
    C172   O175      1.20261      .   S
    Zr7    O175      2.28823      .   S
    C176   O177      1.00199  1_545   S
    Zr25   O177      2.01707      .   S
    C176   O178      1.20258      .   S
    Zr4    O178      2.28818      .   S
    C176   O179      1.20769      .   S
    Zr8    O179      2.30765      .   S
    C180   O181      1.20780      .   S
    Zr2    O181      2.30742      .   S
    C180   O182      1.00216      .   S
    Zr19   O182      2.01724      .   S
    C180   O183      1.20256      .   S
    Zr14   O183      2.28819      .   S
    C184   O185      1.20260      .   S
    Zr4    O185      2.28822      .   S
    C184   O186      1.00206      .   S
    Zr24   O186      2.01715      .   S
    C184   O187      1.20771      .   S
    Zr8    O187      2.30766      .   S
    C188   O189      1.00202      .   S
    Zr24   O189      2.01710      .   S
    C188   O190      1.20776      .   S
    Zr9    O190      2.30771      .   S
    C188   O191      1.20264      .   S
    Zr5    O191      2.28823      .   S
    C192   O193      1.20562      .   S
    Zr4    O193      2.30174  1_455   S
    C192   O194      1.00233  1_545   S
    Zr23   O194      2.01817      .   S
    C192   O195      1.20202      .   S
    Zr10   O195      2.28653      .   S
    C196   O197      1.20569      .   S
    Zr7    O197      2.30181      .   S
    C196   O198      1.00236      .   S
    Zr20   O198      2.01819      .   S
    C196   O199      1.20208      .   S
    Zr9    O199      2.28659      .   S
    C200   O201      1.20567      .   S
    Zr4    O201      2.30178  1_455   S
    C200   O202      1.00237      .   S
    Zr22   O202      2.01821      .   S
    C200   O203      1.20208      .   S
    Zr10   O203      2.28659      .   S
    C204   O205      1.20567      .   S
    Zr5    O205      2.30179  1_455   S
    C204   O206      1.20208      .   S
    Zr11   O206      2.28660      .   S
    C204   O207      1.00237      .   S
    Zr23   O207      2.01820      .   S
    C208   O209      1.20763      .   S
    Zr0    O209      2.30755      .   S
    C208   O210      1.20267      .   S
    Zr12   O210      2.28807      .   S
    C208   O211      1.00217      .   S
    Zr16   O211      2.01725      .   S
    C212   O213      1.19935      .   S
    Zr9    O213      2.27992      .   S
    C212   O214      0.99836      .   S
    Zr29   O214      2.00762      .   S
    C212   O215      1.22142      .   S
    Zr5    O215      2.34704      .   S
    C216   O217      1.19935      .   S
    Zr10   O217      2.27992      .   S
    C216   O218      0.99836      .   S
    Zr30   O218      2.00762      .   S
    C216   O219      1.22142      .   S
    Zr6    O219      2.34704      .   S
    C220   O221      1.00199  1_545   S
    Zr27   O221      2.01707      .   S
    C220   O222      1.20259      .   S
    Zr6    O222      2.28818      .   S
    C220   O223      1.20769      .   S
    Zr10   O223      2.30765      .   S
    C224   O225      1.22009      .   S
    Zr2    O225      2.34253      .   S
    C224   O226      1.19733      .   S
    Zr12   O226      2.27427      .   S
    C224   O227      0.99795      .   S
    Zr26   O227      2.00661  1_554   S
    C228   O229      1.22009      .   S
    Zr3    O229      2.34253      .   S
    C228   O230      1.19732      .   S
    Zr13   O230      2.27427      .   S
    C228   O231      0.99795      .   S
    Zr27   O231      2.00662  1_554   S
    C232   O233      1.00212      .   S
    Zr17   O233      2.01721      .   S
    C232   O234      1.20260      .   S
    Zr13   O234      2.28823      .   S
    C232   O235      1.20768      .   S
    Zr1    O235      2.30760      .   S
    C236   O237      1.19935      .   S
    Zr11   O237      2.27992      .   S
    C236   O238      0.99836      .   S
    Zr31   O238      2.00762      .   S
    C236   O239      1.22142      .   S
    Zr7    O239      2.34704      .   S
    C240   O241      1.20260      .   S
    Zr15   O241      2.28822      .   S
    C240   O242      1.00212      .   S
    Zr19   O242      2.01721      .   S
    C240   O243      1.20768      .   S
    Zr3    O243      2.30760      .   S
    C244   O245      0.99795      .   S
    Zr17   O245      2.00662  1_556   S
    C244   O246      1.22009      .   S
    Zr9    O246      2.34253      .   S
    C244   O247      1.19729      .   S
    Zr7    O247      2.27416      .   S
    C248   O249      1.20260      .   S
    Zr14   O249      2.28822      .   S
    C248   O250      1.00212      .   S
    Zr18   O250      2.01720      .   S
    C248   O251      1.20767      .   S
    Zr2    O251      2.30759      .   S
    C252   O253      1.20208      .   S
    Zr9    O253      2.28660      .   S
    C252   O254      1.20567      .   S
    Zr7    O254      2.30179      .   S
    C252   O255      1.00237      .   S
    Zr21   O255      2.01820      .   S
