# CIF file generated by openbabel 2.4.90, see http://openbabel.sf.net
data_I
_chemical_name_common ''
_cell_length_a 15.37
_cell_length_b 20.104
_cell_length_c 17.697
_cell_angle_alpha 90
_cell_angle_beta 89.987
_cell_angle_gamma 89.999
_space_group_name_H-M_alt 'P 1'
_space_group_name_Hall 'P 1'
loop_
    _symmetry_equiv_pos_as_xyz
    x,y,z
loop_
    _atom_site_label
    _atom_site_type_symbol
    _atom_site_fract_x
    _atom_site_fract_y
    _atom_site_fract_z
    _atom_site_occupancy
    C0      C    0.23775   0.37500   0.73720   1.000
    C1      C    0.23775   0.87501   0.73720   1.000
    C2      C    0.73775   0.37500   0.73720   1.000
    C3      C    0.73775   0.87501   0.73720   1.000
    C4      C    0.01147   0.12500   0.23725   1.000
    C5      C    0.01147   0.62501   0.23725   1.000
    C6      C    0.51147   0.12500   0.23725   1.000
    C7      C    0.51147   0.62501   0.23725   1.000
    C8      C    0.26224   0.12500   0.26279   1.000
    C9      C    0.26224   0.62501   0.26279   1.000
    C10     C    0.76224   0.12500   0.26279   1.000
    C11     C    0.76224   0.62501   0.26279   1.000
    C12     C    0.48853   0.37500   0.76273   1.000
    C13     C    0.48853   0.87501   0.76273   1.000
    C14     C    0.98853   0.37500   0.76273   1.000
    C15     C    0.98853   0.87501   0.76273   1.000
    C16     C    0.31494   0.12500   0.92159   1.000
    C17     C    0.31494   0.62501   0.92159   1.000
    C18     C    0.81494   0.12500   0.92159   1.000
    C19     C    0.81494   0.62501   0.92159   1.000
    C20     C    0.43619   0.37500   0.42169   1.000
    C21     C    0.43619   0.87501   0.42169   1.000
    C22     C    0.93619   0.37500   0.42169   1.000
    C23     C    0.93619   0.87501   0.42169   1.000
    C24     C    0.18506   0.37500   0.07840   1.000
    C25     C    0.18506   0.87501   0.07840   1.000
    C26     C    0.68506   0.37500   0.07840   1.000
    C27     C    0.68506   0.87501   0.07840   1.000
    C28     C    0.06380   0.12500   0.57830   1.000
    C29     C    0.06381   0.62501   0.57830   1.000
    C30     C    0.56380   0.12500   0.57830   1.000
    C31     C    0.56381   0.62501   0.57830   1.000
    C32     C    0.48418   0.01859   0.87178   1.000
    C33     C    0.48418   0.51859   0.87178   1.000
    C34     C    0.98418   0.01859   0.87178   1.000
    C35     C    0.98418   0.51859   0.87178   1.000
    C36     C    0.21649   0.02149   0.82352   1.000
    C37     C    0.21649   0.52150   0.82352   1.000
    C38     C    0.71649   0.02149   0.82352   1.000
    C39     C    0.71649   0.52150   0.82352   1.000
    C40     C    0.26628   0.48114   0.37208   1.000
    C41     C    0.26628   0.98115   0.37208   1.000
    C42     C    0.76628   0.48114   0.37208   1.000
    C43     C    0.76629   0.98115   0.37208   1.000
    C44     C    0.03395   0.47875   0.32351   1.000
    C45     C    0.03395   0.97875   0.32351   1.000
    C46     C    0.53395   0.47875   0.32351   1.000
    C47     C    0.53396   0.97875   0.32351   1.000
    C48     C    0.01581   0.26859   0.12821   1.000
    C49     C    0.01581   0.76860   0.12821   1.000
    C50     C    0.51581   0.26859   0.12821   1.000
    C51     C    0.51581   0.76860   0.12821   1.000
    C52     C    0.28350   0.27150   0.17647   1.000
    C53     C    0.28350   0.77150   0.17647   1.000
    C54     C    0.78350   0.27150   0.17647   1.000
    C55     C    0.78350   0.77150   0.17647   1.000
    C56     C    0.23371   0.23114   0.62791   1.000
    C57     C    0.23371   0.73114   0.62791   1.000
    C58     C    0.73371   0.23114   0.62791   1.000
    C59     C    0.73371   0.73114   0.62791   1.000
    C60     C    0.46604   0.22874   0.67649   1.000
    C61     C    0.46605   0.72875   0.67649   1.000
    C62     C    0.96605   0.22874   0.67649   1.000
    C63     C    0.96605   0.72875   0.67649   1.000
    C64     C    0.01582   0.48142   0.12821   1.000
    C65     C    0.01582   0.98143   0.12821   1.000
    C66     C    0.51582   0.48142   0.12821   1.000
    C67     C    0.51582   0.98143   0.12821   1.000
    C68     C    0.28351   0.47851   0.17640   1.000
    C69     C    0.28351   0.97852   0.17640   1.000
    C70     C    0.78351   0.47851   0.17640   1.000
    C71     C    0.78351   0.97852   0.17640   1.000
    C72     C    0.23371   0.01886   0.62791   1.000
    C73     C    0.23371   0.51887   0.62791   1.000
    C74     C    0.73371   0.01886   0.62791   1.000
    C75     C    0.73371   0.51887   0.62791   1.000
    C76     C    0.46604   0.02126   0.67648   1.000
    C77     C    0.46604   0.52127   0.67648   1.000
    C78     C    0.96604   0.02126   0.67648   1.000
    C79     C    0.96604   0.52127   0.67648   1.000
    C80     C    0.48418   0.23142   0.87178   1.000
    C81     C    0.48418   0.73142   0.87178   1.000
    C82     C    0.98418   0.23142   0.87178   1.000
    C83     C    0.98418   0.73142   0.87178   1.000
    C84     C    0.21649   0.22851   0.82352   1.000
    C85     C    0.21649   0.72852   0.82352   1.000
    C86     C    0.71649   0.22851   0.82352   1.000
    C87     C    0.71649   0.72852   0.82352   1.000
    C88     C    0.26628   0.26887   0.37208   1.000
    C89     C    0.26628   0.76888   0.37208   1.000
    C90     C    0.76628   0.26887   0.37208   1.000
    C91     C    0.76628   0.76888   0.37208   1.000
    C92     C    0.03395   0.27126   0.32350   1.000
    C93     C    0.03395   0.77127   0.32350   1.000
    C94     C    0.53395   0.27126   0.32350   1.000
    C95     C    0.53395   0.77127   0.32350   1.000
    C96     C    0.27005   0.37501   0.92237   1.000
    C97     C    0.27005   0.87501   0.92237   1.000
    C98     C    0.77005   0.37501   0.92237   1.000
    C99     C    0.77005   0.87501   0.92237   1.000
    C100    C    0.00038   0.37500   0.96230   1.000
    C101    C    0.00038   0.87501   0.96230   1.000
    C102    C    0.50038   0.37500   0.96230   1.000
    C103    C    0.50038   0.87501   0.96230   1.000
    C104    C    0.47984   0.12500   0.42211   1.000
    C105    C    0.47984   0.62501   0.42211   1.000
    C106    C    0.97984   0.12500   0.42211   1.000
    C107    C    0.97985   0.62501   0.42211   1.000
    C108    C    0.24935   0.12500   0.46266   1.000
    C109    C    0.24935   0.62501   0.46266   1.000
    C110    C    0.74935   0.12500   0.46266   1.000
    C111    C    0.74935   0.62501   0.46266   1.000
    C112    C    0.22995   0.12500   0.07762   1.000
    C113    C    0.22995   0.62501   0.07762   1.000
    C114    C    0.72995   0.12500   0.07762   1.000
    C115    C    0.72995   0.62501   0.07762   1.000
    C116    C    0.49962   0.12500   0.03769   1.000
    C117    C    0.49962   0.62501   0.03769   1.000
    C118    C    0.99962   0.12500   0.03769   1.000
    C119    C    0.99962   0.62501   0.03769   1.000
    C120    C    0.02015   0.37500   0.57788   1.000
    C121    C    0.02015   0.87501   0.57788   1.000
    C122    C    0.52015   0.37500   0.57788   1.000
    C123    C    0.52015   0.87501   0.57788   1.000
    C124    C    0.25064   0.37500   0.53733   1.000
    C125    C    0.25064   0.87501   0.53733   1.000
    C126    C    0.75064   0.37500   0.53733   1.000
    C127    C    0.75064   0.87501   0.53733   1.000
    C128    C    0.42020   0.00558   0.85041   1.000
    C129    C    0.42020   0.50559   0.85041   1.000
    C130    C    0.92020   0.00558   0.85041   1.000
    C131    C    0.92020   0.50559   0.85041   1.000
    C132    C    0.28442   0.00706   0.82470   1.000
    C133    C    0.28443   0.50706   0.82470   1.000
    C134    C    0.78443   0.00706   0.82470   1.000
    C135    C    0.78443   0.50706   0.82470   1.000
    C136    C    0.33019   0.49424   0.35061   1.000
    C137    C    0.33019   0.99425   0.35061   1.000
    C138    C    0.83019   0.49424   0.35061   1.000
    C139    C    0.83019   0.99425   0.35061   1.000
    C140    C    0.46596   0.49302   0.32483   1.000
    C141    C    0.46596   0.99303   0.32483   1.000
    C142    C    0.96596   0.49302   0.32483   1.000
    C143    C    0.96596   0.99303   0.32483   1.000
    C144    C    0.07979   0.25559   0.14958   1.000
    C145    C    0.07979   0.75559   0.14958   1.000
    C146    C    0.57979   0.25559   0.14958   1.000
    C147    C    0.57979   0.75559   0.14958   1.000
    C148    C    0.21556   0.25706   0.17522   1.000
    C149    C    0.21556   0.75706   0.17522   1.000
    C150    C    0.71556   0.25706   0.17522   1.000
    C151    C    0.71557   0.75706   0.17522   1.000
    C152    C    0.16981   0.24424   0.64938   1.000
    C153    C    0.16981   0.74425   0.64938   1.000
    C154    C    0.66980   0.24424   0.64938   1.000
    C155    C    0.66981   0.74425   0.64938   1.000
    C156    C    0.03404   0.24302   0.67516   1.000
    C157    C    0.03404   0.74303   0.67516   1.000
    C158    C    0.53404   0.24302   0.67516   1.000
    C159    C    0.53404   0.74303   0.67516   1.000
    C160    C    0.07980   0.49443   0.14958   1.000
    C161    C    0.07980   0.99443   0.14958   1.000
    C162    C    0.57980   0.49443   0.14958   1.000
    C163    C    0.57980   0.99443   0.14958   1.000
    C164    C    0.21557   0.49295   0.17522   1.000
    C165    C    0.21557   0.99296   0.17522   1.000
    C166    C    0.71557   0.49295   0.17522   1.000
    C167    C    0.71557   0.99296   0.17522   1.000
    C168    C    0.16980   0.00576   0.64938   1.000
    C169    C    0.16980   0.50577   0.64938   1.000
    C170    C    0.66980   0.00576   0.64938   1.000
    C171    C    0.66980   0.50577   0.64938   1.000
    C172    C    0.03403   0.00698   0.67516   1.000
    C173    C    0.03403   0.50699   0.67516   1.000
    C174    C    0.53403   0.00698   0.67516   1.000
    C175    C    0.53403   0.50699   0.67516   1.000
    C176    C    0.42020   0.24442   0.85041   1.000
    C177    C    0.42020   0.74443   0.85041   1.000
    C178    C    0.92020   0.24442   0.85041   1.000
    C179    C    0.92020   0.74443   0.85041   1.000
    C180    C    0.28443   0.24295   0.82470   1.000
    C181    C    0.28443   0.74296   0.82470   1.000
    C182    C    0.78443   0.24295   0.82470   1.000
    C183    C    0.78443   0.74296   0.82470   1.000
    C184    C    0.33019   0.25577   0.35061   1.000
    C185    C    0.33019   0.75577   0.35061   1.000
    C186    C    0.83019   0.25577   0.35061   1.000
    C187    C    0.83019   0.75577   0.35061   1.000
    C188    C    0.46596   0.25698   0.32483   1.000
    C189    C    0.46596   0.75699   0.32483   1.000
    C190    C    0.96596   0.25698   0.32483   1.000
    C191    C    0.96596   0.75699   0.32483   1.000
    C192    C    0.20030   0.37501   0.91329   1.000
    C193    C    0.20030   0.87501   0.91329   1.000
    C194    C    0.70030   0.37501   0.91329   1.000
    C195    C    0.70030   0.87501   0.91329   1.000
    C196    C    0.06334   0.37500   0.93435   1.000
    C197    C    0.06334   0.87501   0.93435   1.000
    C198    C    0.56334   0.37500   0.93435   1.000
    C199    C    0.56334   0.87501   0.93435   1.000
    C200    C    0.04963   0.12500   0.41320   1.000
    C201    C    0.04963   0.62501   0.41320   1.000
    C202    C    0.54963   0.12500   0.41320   1.000
    C203    C    0.54963   0.62501   0.41320   1.000
    C204    C    0.18649   0.12500   0.43456   1.000
    C205    C    0.18649   0.62501   0.43456   1.000
    C206    C    0.68649   0.12500   0.43456   1.000
    C207    C    0.68649   0.62501   0.43456   1.000
    C208    C    0.29970   0.12500   0.08670   1.000
    C209    C    0.29970   0.62501   0.08670   1.000
    C210    C    0.79970   0.12500   0.08670   1.000
    C211    C    0.79970   0.62501   0.08670   1.000
    C212    C    0.43665   0.12500   0.06564   1.000
    C213    C    0.43666   0.62501   0.06564   1.000
    C214    C    0.93665   0.12500   0.06564   1.000
    C215    C    0.93666   0.62501   0.06564   1.000
    C216    C    0.45037   0.37501   0.58679   1.000
    C217    C    0.45037   0.87501   0.58679   1.000
    C218    C    0.95037   0.37501   0.58679   1.000
    C219    C    0.95037   0.87501   0.58679   1.000
    C220    C    0.31351   0.37500   0.56543   1.000
    C221    C    0.31351   0.87501   0.56543   1.000
    C222    C    0.81351   0.37500   0.56543   1.000
    C223    C    0.81351   0.87501   0.56543   1.000
    C224    C    0.31667   0.45309   0.79150   1.000
    C225    C    0.31667   0.95310   0.79150   1.000
    C226    C    0.81667   0.45309   0.79150   1.000
    C227    C    0.81667   0.95310   0.79150   1.000
    C228    C    0.34667   0.04178   0.86247   1.000
    C229    C    0.34667   0.54179   0.86247   1.000
    C230    C    0.84667   0.04178   0.86247   1.000
    C231    C    0.84667   0.54179   0.86247   1.000
    C232    C    0.40432   0.45197   0.80817   1.000
    C233    C    0.40432   0.95198   0.80817   1.000
    C234    C    0.90432   0.45197   0.80817   1.000
    C235    C    0.90432   0.95198   0.80817   1.000
    C236    C    0.43349   0.04690   0.29165   1.000
    C237    C    0.43349   0.54691   0.29165   1.000
    C238    C    0.93349   0.04690   0.29165   1.000
    C239    C    0.93349   0.54691   0.29165   1.000
    C240    C    0.40387   0.45820   0.36261   1.000
    C241    C    0.40387   0.95821   0.36261   1.000
    C242    C    0.90387   0.45820   0.36261   1.000
    C243    C    0.90387   0.95821   0.36261   1.000
    C244    C    0.34587   0.04788   0.30833   1.000
    C245    C    0.34587   0.54789   0.30833   1.000
    C246    C    0.84586   0.04788   0.30833   1.000
    C247    C    0.84587   0.54789   0.30833   1.000
    C248    C    0.18332   0.20309   0.20841   1.000
    C249    C    0.18332   0.70309   0.20841   1.000
    C250    C    0.68332   0.20309   0.20841   1.000
    C251    C    0.68332   0.70309   0.20841   1.000
    C252    C    0.15332   0.29179   0.13752   1.000
    C253    C    0.15332   0.79179   0.13752   1.000
    C254    C    0.65332   0.29179   0.13752   1.000
    C255    C    0.65332   0.79179   0.13752   1.000
    C256    C    0.09567   0.20197   0.19181   1.000
    C257    C    0.09567   0.70197   0.19181   1.000
    C258    C    0.59567   0.20197   0.19181   1.000
    C259    C    0.59567   0.70197   0.19181   1.000
    C260    C    0.06651   0.29691   0.70834   1.000
    C261    C    0.06651   0.79691   0.70834   1.000
    C262    C    0.56651   0.29691   0.70834   1.000
    C263    C    0.56651   0.79691   0.70834   1.000
    C264    C    0.09613   0.20820   0.63738   1.000
    C265    C    0.09613   0.70820   0.63738   1.000
    C266    C    0.59613   0.20820   0.63738   1.000
    C267    C    0.59613   0.70820   0.63738   1.000
    C268    C    0.15413   0.29788   0.69166   1.000
    C269    C    0.15413   0.79789   0.69166   1.000
    C270    C    0.65413   0.29788   0.69166   1.000
    C271    C    0.65413   0.79789   0.69166   1.000
    C272    C    0.18332   0.04692   0.20841   1.000
    C273    C    0.18333   0.54692   0.20841   1.000
    C274    C    0.68333   0.04692   0.20841   1.000
    C275    C    0.68333   0.54692   0.20841   1.000
    C276    C    0.15332   0.45822   0.13752   1.000
    C277    C    0.15332   0.95823   0.13752   1.000
    C278    C    0.65332   0.45822   0.13752   1.000
    C279    C    0.65332   0.95823   0.13752   1.000
    C280    C    0.09568   0.04804   0.19182   1.000
    C281    C    0.09568   0.54804   0.19182   1.000
    C282    C    0.59568   0.04804   0.19182   1.000
    C283    C    0.59568   0.54804   0.19182   1.000
    C284    C    0.06651   0.45310   0.70834   1.000
    C285    C    0.06651   0.95311   0.70834   1.000
    C286    C    0.56651   0.45310   0.70834   1.000
    C287    C    0.56651   0.95311   0.70834   1.000
    C288    C    0.09612   0.04181   0.63738   1.000
    C289    C    0.09613   0.54181   0.63738   1.000
    C290    C    0.59613   0.04181   0.63738   1.000
    C291    C    0.59613   0.54181   0.63738   1.000
    C292    C    0.15413   0.45213   0.69166   1.000
    C293    C    0.15413   0.95213   0.69166   1.000
    C294    C    0.65413   0.45213   0.69166   1.000
    C295    C    0.65413   0.95213   0.69166   1.000
    C296    C    0.31667   0.29692   0.79157   1.000
    C297    C    0.31667   0.79692   0.79157   1.000
    C298    C    0.81667   0.29692   0.79157   1.000
    C299    C    0.81667   0.79692   0.79157   1.000
    C300    C    0.34668   0.20822   0.86247   1.000
    C301    C    0.34668   0.70823   0.86247   1.000
    C302    C    0.84668   0.20822   0.86247   1.000
    C303    C    0.84668   0.70823   0.86247   1.000
    C304    C    0.40432   0.29804   0.80810   1.000
    C305    C    0.40432   0.79805   0.80817   1.000
    C306    C    0.90432   0.29804   0.80817   1.000
    C307    C    0.90432   0.79805   0.80817   1.000
    C308    C    0.43348   0.20310   0.29165   1.000
    C309    C    0.43348   0.70311   0.29165   1.000
    C310    C    0.93348   0.20310   0.29165   1.000
    C311    C    0.93348   0.70311   0.29165   1.000
    C312    C    0.40387   0.29181   0.36261   1.000
    C313    C    0.40387   0.79182   0.36261   1.000
    C314    C    0.90387   0.29181   0.36261   1.000
    C315    C    0.90387   0.79182   0.36261   1.000
    C316    C    0.34586   0.20212   0.30833   1.000
    C317    C    0.34586   0.70213   0.30833   1.000
    C318    C    0.84586   0.20212   0.30833   1.000
    C319    C    0.84586   0.70213   0.30833   1.000
    C320    C    0.16204   0.37501   0.84600   1.000
    C321    C    0.16204   0.87501   0.84600   1.000
    C322    C    0.66205   0.37501   0.84600   1.000
    C323    C    0.66205   0.87501   0.84600   1.000
    C324    C    0.07365   0.37500   0.85945   1.000
    C325    C    0.07365   0.87501   0.85945   1.000
    C326    C    0.57365   0.37501   0.85945   1.000
    C327    C    0.57365   0.87501   0.85945   1.000
    C328    C    0.14147   0.37501   0.97069   1.000
    C329    C    0.14147   0.87501   0.97069   1.000
    C330    C    0.64147   0.37501   0.97069   1.000
    C331    C    0.64147   0.87501   0.97069   1.000
    C332    C    0.08809   0.12500   0.34599   1.000
    C333    C    0.08809   0.62501   0.34599   1.000
    C334    C    0.58809   0.12500   0.34599   1.000
    C335    C    0.58809   0.62501   0.34599   1.000
    C336    C    0.17646   0.12500   0.35962   1.000
    C337    C    0.17646   0.62501   0.35962   1.000
    C338    C    0.67646   0.12500   0.35962   1.000
    C339    C    0.67646   0.62501   0.35962   1.000
    C340    C    0.10822   0.12500   0.47075   1.000
    C341    C    0.10822   0.62501   0.47075   1.000
    C342    C    0.60822   0.12500   0.47075   1.000
    C343    C    0.60822   0.62501   0.47075   1.000
    C344    C    0.33795   0.12500   0.15399   1.000
    C345    C    0.33795   0.62501   0.15399   1.000
    C346    C    0.83795   0.12500   0.15399   1.000
    C347    C    0.83795   0.62501   0.15399   1.000
    C348    C    0.42634   0.12500   0.14054   1.000
    C349    C    0.42634   0.62501   0.14054   1.000
    C350    C    0.92634   0.12500   0.14054   1.000
    C351    C    0.92634   0.62501   0.14054   1.000
    C352    C    0.35852   0.12500   0.02930   1.000
    C353    C    0.35852   0.62501   0.02930   1.000
    C354    C    0.85852   0.12500   0.02930   1.000
    C355    C    0.85852   0.62501   0.02930   1.000
    C356    C    0.41191   0.37500   0.65400   1.000
    C357    C    0.41191   0.87501   0.65400   1.000
    C358    C    0.91191   0.37500   0.65400   1.000
    C359    C    0.91191   0.87501   0.65400   1.000
    C360    C    0.32353   0.37500   0.64037   1.000
    C361    C    0.32354   0.87501   0.64037   1.000
    C362    C    0.82353   0.37500   0.64037   1.000
    C363    C    0.82354   0.87501   0.64037   1.000
    C364    C    0.39177   0.37500   0.52924   1.000
    C365    C    0.39177   0.87501   0.52924   1.000
    C366    C    0.89178   0.37500   0.52924   1.000
    C367    C    0.89178   0.87501   0.52924   1.000
    C368    C    0.16643   0.12501   0.92698   1.000
    C369    C    0.16643   0.62501   0.92698   1.000
    C370    C    0.66643   0.12501   0.92698   1.000
    C371    C    0.66643   0.62501   0.92698   1.000
    C372    C    0.08449   0.37500   0.42706   1.000
    C373    C    0.08450   0.87501   0.42706   1.000
    C374    C    0.58449   0.37500   0.42706   1.000
    C375    C    0.58450   0.87501   0.42706   1.000
    C376    C    0.33356   0.37500   0.07301   1.000
    C377    C    0.33357   0.87501   0.07301   1.000
    C378    C    0.83357   0.37500   0.07301   1.000
    C379    C    0.83357   0.87501   0.07301   1.000
    C380    C    0.41550   0.12501   0.57292   1.000
    C381    C    0.41550   0.62501   0.57292   1.000
    C382    C    0.91550   0.12501   0.57292   1.000
    C383    C    0.91550   0.62501   0.57292   1.000
    O384    O    0.89759   0.62501   0.04747   1.000
    O385    O    0.82911   0.62501   0.05800   1.000
    O386    O    0.83673   0.62501   0.97545   1.000
    O387    O    0.89759   0.12500   0.04747   1.000
    O388    O    0.82911   0.12500   0.05800   1.000
    O389    O    0.83673   0.12500   0.97545   1.000
    O390    O    0.39759   0.62501   0.04747   1.000
    O391    O    0.32911   0.62501   0.05800   1.000
    O392    O    0.33673   0.62501   0.97545   1.000
    O393    O    0.39759   0.12500   0.04747   1.000
    O394    O    0.32911   0.12500   0.05800   1.000
    O395    O    0.33673   0.12500   0.97545   1.000
    O396    O    0.46814   0.62501   0.05167   1.000
    O397    O    0.46814   0.12500   0.05167   1.000
    O398    O    0.96814   0.12500   0.05167   1.000
    O399    O    0.96814   0.62501   0.05167   1.000
    O400    O    0.43150   0.62501   0.10309   1.000
    O401    O    0.93150   0.12500   0.10309   1.000
    O402    O    0.93150   0.62501   0.10309   1.000
    O403    O    0.43150   0.12500   0.10309   1.000
    O404    O    0.75931   0.87501   0.07571   1.000
    O405    O    0.75931   0.37500   0.07571   1.000
    O406    O    0.25931   0.87501   0.07571   1.000
    O407    O    0.25931   0.37500   0.07571   1.000
    O408    O    0.26482   0.12500   0.08216   1.000
    O409    O    0.26482   0.62501   0.08216   1.000
    O410    O    0.76482   0.12500   0.08216   1.000
    O411    O    0.76482   0.62501   0.08216   1.000
    O412    O    0.66919   0.83340   0.10796   1.000
    O413    O    0.66919   0.91662   0.10796   1.000
    O414    O    0.66326   0.87501   0.02455   1.000
    O415    O    0.66919   0.41661   0.10796   1.000
    O416    O    0.66919   0.33340   0.10796   1.000
    O417    O    0.66326   0.37500   0.02455   1.000
    O418    O    0.16919   0.83340   0.10796   1.000
    O419    O    0.16919   0.91662   0.10796   1.000
    O420    O    0.16326   0.87501   0.02455   1.000
    O421    O    0.16919   0.33340   0.10796   1.000
    O422    O    0.16919   0.41661   0.10796   1.000
    O423    O    0.16326   0.37500   0.02455   1.000
    O424    O    0.81883   0.62501   0.12035   1.000
    O425    O    0.81882   0.12500   0.12035   1.000
    O426    O    0.31883   0.62501   0.12035   1.000
    O427    O    0.31882   0.12500   0.12035   1.000
    O428    O    0.04781   0.48792   0.13889   1.000
    O429    O    0.04781   0.98793   0.13889   1.000
    O430    O    0.54781   0.48792   0.13889   1.000
    O431    O    0.54781   0.98793   0.13889   1.000
    O432    O    0.54780   0.76209   0.13889   1.000
    O433    O    0.54780   0.26209   0.13889   1.000
    O434    O    0.04780   0.76209   0.13889   1.000
    O435    O    0.04780   0.26209   0.13889   1.000
    O436    O    0.61656   0.47632   0.14355   1.000
    O437    O    0.68444   0.47559   0.15637   1.000
    O438    O    0.61656   0.77369   0.14355   1.000
    O439    O    0.68444   0.77443   0.15637   1.000
    O440    O    0.61655   0.27369   0.14355   1.000
    O441    O    0.68444   0.27442   0.15637   1.000
    O442    O    0.11655   0.77369   0.14355   1.000
    O443    O    0.18444   0.77443   0.15637   1.000
    O444    O    0.11655   0.27369   0.14355   1.000
    O445    O    0.18444   0.27442   0.15637   1.000
    O446    O    0.11656   0.97633   0.14355   1.000
    O447    O    0.18445   0.97559   0.15637   1.000
    O448    O    0.11656   0.47632   0.14355   1.000
    O449    O    0.18444   0.47559   0.15637   1.000
    O450    O    0.61656   0.97633   0.14355   1.000
    O451    O    0.68445   0.97559   0.15637   1.000
    O452    O    0.88215   0.12500   0.14727   1.000
    O453    O    0.96890   0.12500   0.18890   1.000
    O454    O    0.38215   0.62501   0.14727   1.000
    O455    O    0.46891   0.62501   0.18890   1.000
    O456    O    0.88215   0.62501   0.14727   1.000
    O457    O    0.96891   0.62501   0.18890   1.000
    O458    O    0.38215   0.12500   0.14727   1.000
    O459    O    0.46890   0.12500   0.18890   1.000
    O460    O    0.08774   0.52123   0.17070   1.000
    O461    O    0.08774   0.02123   0.17070   1.000
    O462    O    0.58774   0.52123   0.17070   1.000
    O463    O    0.58774   0.02123   0.17070   1.000
    O464    O    0.08773   0.22878   0.17070   1.000
    O465    O    0.08773   0.72878   0.17070   1.000
    O466    O    0.58773   0.22878   0.17070   1.000
    O467    O    0.58773   0.72878   0.17070   1.000
    O468    O    0.30010   0.12500   0.20839   1.000
    O469    O    0.80010   0.62501   0.20839   1.000
    O470    O    0.80010   0.12500   0.20839   1.000
    O471    O    0.30010   0.62501   0.20839   1.000
    O472    O    0.24954   0.48573   0.17581   1.000
    O473    O    0.19945   0.51994   0.19182   1.000
    O474    O    0.24954   0.98574   0.17581   1.000
    O475    O    0.19945   0.01994   0.19182   1.000
    O476    O    0.24953   0.26428   0.17584   1.000
    O477    O    0.19944   0.23007   0.19182   1.000
    O478    O    0.74954   0.48573   0.17581   1.000
    O479    O    0.69945   0.51994   0.19182   1.000
    O480    O    0.74954   0.98574   0.17581   1.000
    O481    O    0.69945   0.01994   0.19182   1.000
    O482    O    0.24953   0.76428   0.17584   1.000
    O483    O    0.19944   0.73008   0.19182   1.000
    O484    O    0.74953   0.26428   0.17584   1.000
    O485    O    0.69944   0.23007   0.19182   1.000
    O486    O    0.74953   0.76428   0.17584   1.000
    O487    O    0.69944   0.73008   0.19182   1.000
    O488    O    0.13950   0.20253   0.20011   1.000
    O489    O    0.05357   0.16348   0.21453   1.000
    O490    O    0.63950   0.70253   0.20011   1.000
    O491    O    0.55357   0.66349   0.21453   1.000
    O492    O    0.63950   0.20253   0.20011   1.000
    O493    O    0.55357   0.16348   0.21453   1.000
    O494    O    0.13950   0.70253   0.20011   1.000
    O495    O    0.05357   0.66349   0.21453   1.000
    O496    O    0.63950   0.54748   0.20012   1.000
    O497    O    0.55357   0.58653   0.21454   1.000
    O498    O    0.13950   0.04748   0.20012   1.000
    O499    O    0.05357   0.08652   0.21454   1.000
    O500    O    0.63950   0.04748   0.20012   1.000
    O501    O    0.55357   0.08652   0.21454   1.000
    O502    O    0.13950   0.54748   0.20012   1.000
    O503    O    0.05357   0.58653   0.21454   1.000
    O504    O    0.22279   0.58596   0.23560   1.000
    O505    O    0.72279   0.08596   0.23560   1.000
    O506    O    0.22278   0.08596   0.23560   1.000
    O507    O    0.72278   0.66405   0.23560   1.000
    O508    O    0.72278   0.16405   0.23560   1.000
    O509    O    0.22278   0.66405   0.23560   1.000
    O510    O    0.22278   0.16405   0.23560   1.000
    O511    O    0.72279   0.58596   0.23560   1.000
    O512    O    0.97248   0.08595   0.26445   1.000
    O513    O    0.97247   0.16405   0.26445   1.000
    O514    O    0.04978   0.12500   0.29162   1.000
    O515    O    0.97248   0.58596   0.26445   1.000
    O516    O    0.97248   0.66406   0.26445   1.000
    O517    O    0.04978   0.62501   0.29162   1.000
    O518    O    0.47248   0.08595   0.26445   1.000
    O519    O    0.47247   0.16405   0.26445   1.000
    O520    O    0.54978   0.12500   0.29162   1.000
    O521    O    0.47248   0.58596   0.26445   1.000
    O522    O    0.47248   0.66406   0.26445   1.000
    O523    O    0.54978   0.62501   0.29162   1.000
    O524    O    0.30405   0.16356   0.28556   1.000
    O525    O    0.30405   0.08644   0.28556   1.000
    O526    O    0.21935   0.12500   0.31121   1.000
    O527    O    0.30405   0.66357   0.28556   1.000
    O528    O    0.30405   0.58645   0.28556   1.000
    O529    O    0.21935   0.62501   0.31121   1.000
    O530    O    0.80405   0.08644   0.28556   1.000
    O531    O    0.80405   0.16356   0.28556   1.000
    O532    O    0.71935   0.12500   0.31121   1.000
    O533    O    0.80406   0.58645   0.28556   1.000
    O534    O    0.80405   0.66357   0.28556   1.000
    O535    O    0.71935   0.62501   0.31121   1.000
    O536    O    0.38968   0.04739   0.29999   1.000
    O537    O    0.44972   0.01997   0.30824   1.000
    O538    O    0.38968   0.54740   0.29999   1.000
    O539    O    0.44972   0.51997   0.30824   1.000
    O540    O    0.88968   0.04739   0.29999   1.000
    O541    O    0.94972   0.01997   0.30824   1.000
    O542    O    0.88968   0.54740   0.29999   1.000
    O543    O    0.94972   0.51997   0.30824   1.000
    O544    O    0.38967   0.20261   0.29999   1.000
    O545    O    0.44972   0.23004   0.30824   1.000
    O546    O    0.38967   0.70262   0.29999   1.000
    O547    O    0.44972   0.73005   0.30824   1.000
    O548    O    0.88967   0.20261   0.29999   1.000
    O549    O    0.94972   0.23004   0.30824   1.000
    O550    O    0.88967   0.70262   0.29999   1.000
    O551    O    0.94972   0.73005   0.30824   1.000
    O552    O    0.83803   0.02107   0.32947   1.000
    O553    O    0.83803   0.52107   0.32947   1.000
    O554    O    0.33803   0.22895   0.32947   1.000
    O555    O    0.33803   0.02107   0.32947   1.000
    O556    O    0.83803   0.72895   0.32947   1.000
    O557    O    0.83803   0.22895   0.32947   1.000
    O558    O    0.33803   0.72895   0.32947   1.000
    O559    O    0.33803   0.52107   0.32947   1.000
    O560    O    0.49995   0.76413   0.32416   1.000
    O561    O    0.99995   0.26412   0.32416   1.000
    O562    O    0.99995   0.76413   0.32416   1.000
    O563    O    0.49995   0.26412   0.32416   1.000
    O564    O    0.99996   0.48588   0.32417   1.000
    O565    O    0.99996   0.98589   0.32417   1.000
    O566    O    0.49996   0.48588   0.32417   1.000
    O567    O    0.49996   0.98589   0.32417   1.000
    O568    O    0.43492   0.47561   0.34372   1.000
    O569    O    0.43492   0.97562   0.34372   1.000
    O570    O    0.93492   0.47561   0.34372   1.000
    O571    O    0.93492   0.97562   0.34372   1.000
    O572    O    0.43491   0.77440   0.34372   1.000
    O573    O    0.93491   0.27440   0.34372   1.000
    O574    O    0.93491   0.77440   0.34372   1.000
    O575    O    0.43491   0.27440   0.34372   1.000
    O576    O    0.63228   0.62501   0.35280   1.000
    O577    O    0.56886   0.62501   0.37960   1.000
    O578    O    0.63227   0.12500   0.35280   1.000
    O579    O    0.56886   0.12500   0.37960   1.000
    O580    O    0.13228   0.62501   0.35280   1.000
    O581    O    0.06886   0.62501   0.37960   1.000
    O582    O    0.13227   0.12500   0.35280   1.000
    O583    O    0.06886   0.12500   0.37960   1.000
    O584    O    0.36703   0.27379   0.35661   1.000
    O585    O    0.29824   0.26232   0.36134   1.000
    O586    O    0.36703   0.47622   0.35661   1.000
    O587    O    0.29824   0.48769   0.36134   1.000
    O588    O    0.36703   0.97623   0.35661   1.000
    O589    O    0.29824   0.98770   0.36134   1.000
    O590    O    0.86703   0.47622   0.35661   1.000
    O591    O    0.79824   0.48769   0.36134   1.000
    O592    O    0.86703   0.97623   0.35661   1.000
    O593    O    0.79824   0.98770   0.36134   1.000
    O594    O    0.36703   0.77379   0.35661   1.000
    O595    O    0.29824   0.76232   0.36134   1.000
    O596    O    0.86703   0.27379   0.35661   1.000
    O597    O    0.79823   0.26232   0.36134   1.000
    O598    O    0.86703   0.77379   0.35661   1.000
    O599    O    0.79824   0.76232   0.36134   1.000
    O600    O    0.18147   0.12500   0.39709   1.000
    O601    O    0.18147   0.62501   0.39709   1.000
    O602    O    0.68147   0.12500   0.39709   1.000
    O603    O    0.68147   0.62501   0.39709   1.000
    O604    O    0.42003   0.83341   0.39215   1.000
    O605    O    0.42003   0.33341   0.39215   1.000
    O606    O    0.92003   0.33341   0.39215   1.000
    O607    O    0.92003   0.83341   0.39215   1.000
    O608    O    0.92003   0.41660   0.39215   1.000
    O609    O    0.42003   0.41660   0.39215   1.000
    O610    O    0.42003   0.91661   0.39215   1.000
    O611    O    0.92003   0.91661   0.39215   1.000
    O612    O    0.01474   0.62501   0.41765   1.000
    O613    O    0.07893   0.62501   0.44198   1.000
    O614    O    0.51474   0.62501   0.41765   1.000
    O615    O    0.57893   0.62501   0.44198   1.000
    O616    O    0.51474   0.12500   0.41765   1.000
    O617    O    0.57892   0.12500   0.44198   1.000
    O618    O    0.01474   0.12500   0.41765   1.000
    O619    O    0.07892   0.12500   0.44198   1.000
    O620    O    0.01034   0.87501   0.42438   1.000
    O621    O    0.91398   0.87501   0.47547   1.000
    O622    O    0.51034   0.37500   0.42438   1.000
    O623    O    0.41398   0.37500   0.47547   1.000
    O624    O    0.51034   0.87501   0.42438   1.000
    O625    O    0.41398   0.87501   0.47547   1.000
    O626    O    0.01034   0.37500   0.42438   1.000
    O627    O    0.91398   0.37500   0.47547   1.000
    O628    O    0.21792   0.62501   0.44861   1.000
    O629    O    0.14735   0.62501   0.45266   1.000
    O630    O    0.71792   0.12500   0.44861   1.000
    O631    O    0.64735   0.12500   0.45266   1.000
    O632    O    0.71792   0.62501   0.44861   1.000
    O633    O    0.64735   0.62501   0.45266   1.000
    O634    O    0.21792   0.12500   0.44861   1.000
    O635    O    0.14735   0.12500   0.45266   1.000
    O636    O    0.58601   0.62501   0.52453   1.000
    O637    O    0.58601   0.12500   0.52453   1.000
    O638    O    0.08601   0.62501   0.52453   1.000
    O639    O    0.08601   0.12500   0.52453   1.000
    O640    O    0.35264   0.37500   0.54733   1.000
    O641    O    0.42107   0.37501   0.55802   1.000
    O642    O    0.35264   0.87501   0.54733   1.000
    O643    O    0.42107   0.87501   0.55802   1.000
    O644    O    0.85264   0.37500   0.54733   1.000
    O645    O    0.92107   0.37501   0.55802   1.000
    O646    O    0.85264   0.87501   0.54733   1.000
    O647    O    0.92107   0.87501   0.55802   1.000
    O648    O    0.28208   0.87501   0.55138   1.000
    O649    O    0.28208   0.37500   0.55138   1.000
    O650    O    0.78208   0.37500   0.55138   1.000
    O651    O    0.78208   0.87501   0.55138   1.000
    O652    O    0.81852   0.87501   0.60290   1.000
    O653    O    0.31852   0.37500   0.60290   1.000
    O654    O    0.31852   0.87501   0.60290   1.000
    O655    O    0.81852   0.37500   0.60290   1.000
    O656    O    0.98965   0.62501   0.57561   1.000
    O657    O    0.48965   0.12500   0.57561   1.000
    O658    O    0.48965   0.62501   0.57561   1.000
    O659    O    0.98965   0.12500   0.57561   1.000
    O660    O    0.48526   0.87501   0.58234   1.000
    O661    O    0.48526   0.37501   0.58234   1.000
    O662    O    0.98526   0.87501   0.58234   1.000
    O663    O    0.98526   0.37501   0.58234   1.000
    O664    O    0.07997   0.66661   0.60784   1.000
    O665    O    0.07997   0.58341   0.60784   1.000
    O666    O    0.57997   0.16660   0.60784   1.000
    O667    O    0.57996   0.08340   0.60784   1.000
    O668    O    0.57997   0.66661   0.60784   1.000
    O669    O    0.57997   0.58341   0.60784   1.000
    O670    O    0.07997   0.16660   0.60784   1.000
    O671    O    0.07996   0.08340   0.60784   1.000
    O672    O    0.93114   0.37501   0.62040   1.000
    O673    O    0.93114   0.87501   0.62040   1.000
    O674    O    0.43114   0.87501   0.62040   1.000
    O675    O    0.43114   0.37501   0.62040   1.000
    O676    O    0.70176   0.51232   0.63864   1.000
    O677    O    0.70176   0.01231   0.63864   1.000
    O678    O    0.20176   0.51232   0.63864   1.000
    O679    O    0.20176   0.01231   0.63864   1.000
    O680    O    0.20176   0.23769   0.63864   1.000
    O681    O    0.70176   0.73769   0.63864   1.000
    O682    O    0.70176   0.23769   0.63864   1.000
    O683    O    0.20176   0.73769   0.63864   1.000
    O684    O    0.13297   0.22622   0.64338   1.000
    O685    O    0.06508   0.22561   0.65627   1.000
    O686    O    0.63297   0.72622   0.64338   1.000
    O687    O    0.56508   0.72562   0.65627   1.000
    O688    O    0.63297   0.22622   0.64338   1.000
    O689    O    0.56508   0.22561   0.65627   1.000
    O690    O    0.13297   0.72622   0.64338   1.000
    O691    O    0.06508   0.72562   0.65627   1.000
    O692    O    0.13296   0.52379   0.64338   1.000
    O693    O    0.06508   0.52440   0.65627   1.000
    O694    O    0.63296   0.02378   0.64338   1.000
    O695    O    0.56508   0.02439   0.65627   1.000
    O696    O    0.63296   0.52379   0.64338   1.000
    O697    O    0.56508   0.52440   0.65627   1.000
    O698    O    0.13296   0.02378   0.64338   1.000
    O699    O    0.06508   0.02439   0.65627   1.000
    O700    O    0.86772   0.87501   0.64719   1.000
    O701    O    0.78064   0.87501   0.68879   1.000
    O702    O    0.36772   0.87501   0.64719   1.000
    O703    O    0.28064   0.87501   0.68879   1.000
    O704    O    0.86772   0.37500   0.64719   1.000
    O705    O    0.78064   0.37500   0.68879   1.000
    O706    O    0.36772   0.37500   0.64719   1.000
    O707    O    0.28064   0.37500   0.68879   1.000
    O708    O    0.66197   0.77107   0.67052   1.000
    O709    O    0.66197   0.27106   0.67052   1.000
    O710    O    0.16197   0.77107   0.67052   1.000
    O711    O    0.16197   0.27106   0.67052   1.000
    O712    O    0.66197   0.47895   0.67052   1.000
    O713    O    0.16197   0.97895   0.67052   1.000
    O714    O    0.16197   0.47895   0.67052   1.000
    O715    O    0.66197   0.97895   0.67052   1.000
    O716    O    0.45022   0.87501   0.70837   1.000
    O717    O    0.95022   0.37500   0.70837   1.000
    O718    O    0.95022   0.87501   0.70837   1.000
    O719    O    0.45022   0.37500   0.70837   1.000
    O720    O    0.00004   0.73589   0.67583   1.000
    O721    O    0.05028   0.76997   0.69175   1.000
    O722    O    0.50004   0.01412   0.67582   1.000
    O723    O    0.55027   0.98005   0.69175   1.000
    O724    O    0.00004   0.51413   0.67582   1.000
    O725    O    0.05027   0.48005   0.69175   1.000
    O726    O    0.00004   0.01412   0.67582   1.000
    O727    O    0.05027   0.98005   0.69175   1.000
    O728    O    0.50004   0.73589   0.67583   1.000
    O729    O    0.55028   0.76997   0.69175   1.000
    O730    O    0.50004   0.23588   0.67583   1.000
    O731    O    0.55028   0.26996   0.69175   1.000
    O732    O    0.00004   0.23588   0.67583   1.000
    O733    O    0.05027   0.26996   0.69175   1.000
    O734    O    0.50004   0.51413   0.67582   1.000
    O735    O    0.55027   0.48005   0.69175   1.000
    O736    O    0.11032   0.79740   0.70000   1.000
    O737    O    0.19594   0.83645   0.71443   1.000
    O738    O    0.11032   0.45262   0.70000   1.000
    O739    O    0.19594   0.41357   0.71443   1.000
    O740    O    0.11032   0.95262   0.70000   1.000
    O741    O    0.19594   0.91357   0.71443   1.000
    O742    O    0.61032   0.79740   0.70000   1.000
    O743    O    0.69594   0.83645   0.71443   1.000
    O744    O    0.61032   0.29739   0.70000   1.000
    O745    O    0.69594   0.33644   0.71443   1.000
    O746    O    0.11032   0.29739   0.70000   1.000
    O747    O    0.19594   0.33644   0.71443   1.000
    O748    O    0.61032   0.45262   0.70000   1.000
    O749    O    0.69594   0.41357   0.71443   1.000
    O750    O    0.61032   0.95262   0.70000   1.000
    O751    O    0.69594   0.91357   0.71443   1.000
    O752    O    0.02752   0.41405   0.73554   1.000
    O753    O    0.02752   0.83596   0.73554   1.000
    O754    O    0.52752   0.91406   0.73554   1.000
    O755    O    0.52752   0.41405   0.73554   1.000
    O756    O    0.02752   0.91406   0.73554   1.000
    O757    O    0.02752   0.33595   0.73554   1.000
    O758    O    0.52752   0.83596   0.73554   1.000
    O759    O    0.52752   0.33595   0.73554   1.000
    O760    O    0.27721   0.91405   0.76435   1.000
    O761    O    0.27721   0.83597   0.76439   1.000
    O762    O    0.19990   0.87501   0.79160   1.000
    O763    O    0.27721   0.41405   0.76435   1.000
    O764    O    0.27721   0.33596   0.76439   1.000
    O765    O    0.19990   0.37500   0.79160   1.000
    O766    O    0.77721   0.41405   0.76435   1.000
    O767    O    0.77721   0.33596   0.76439   1.000
    O768    O    0.69990   0.37500   0.79160   1.000
    O769    O    0.77721   0.91405   0.76435   1.000
    O770    O    0.77721   0.83597   0.76439   1.000
    O771    O    0.69990   0.87501   0.79160   1.000
    O772    O    0.44643   0.33652   0.78541   1.000
    O773    O    0.44642   0.41349   0.78545   1.000
    O774    O    0.53109   0.37500   0.81109   1.000
    O775    O    0.44643   0.83653   0.78545   1.000
    O776    O    0.44642   0.91349   0.78545   1.000
    O777    O    0.53109   0.87501   0.81109   1.000
    O778    O    0.94642   0.41349   0.78545   1.000
    O779    O    0.94643   0.33652   0.78545   1.000
    O780    O    0.03109   0.37500   0.81109   1.000
    O781    O    0.94643   0.83653   0.78545   1.000
    O782    O    0.94643   0.91349   0.78545   1.000
    O783    O    0.03109   0.87501   0.81109   1.000
    O784    O    0.36049   0.95254   0.79984   1.000
    O785    O    0.30055   0.98008   0.80810   1.000
    O786    O    0.36049   0.45253   0.79984   1.000
    O787    O    0.30055   0.48008   0.80810   1.000
    O788    O    0.86049   0.45253   0.79984   1.000
    O789    O    0.80055   0.48008   0.80810   1.000
    O790    O    0.86050   0.95254   0.79984   1.000
    O791    O    0.80055   0.98008   0.80810   1.000
    O792    O    0.36050   0.29748   0.79984   1.000
    O793    O    0.30055   0.26993   0.80814   1.000
    O794    O    0.36050   0.79749   0.79987   1.000
    O795    O    0.30055   0.76994   0.80814   1.000
    O796    O    0.86050   0.29748   0.79987   1.000
    O797    O    0.80055   0.26993   0.80814   1.000
    O798    O    0.86050   0.79749   0.79987   1.000
    O799    O    0.80055   0.76994   0.80814   1.000
    O800    O    0.41226   0.27123   0.82926   1.000
    O801    O    0.91226   0.47878   0.82929   1.000
    O802    O    0.91226   0.77124   0.82929   1.000
    O803    O    0.91226   0.27123   0.82929   1.000
    O804    O    0.41226   0.77124   0.82929   1.000
    O805    O    0.91226   0.97878   0.82929   1.000
    O806    O    0.41226   0.97878   0.82929   1.000
    O807    O    0.41226   0.47878   0.82929   1.000
    O808    O    0.25046   0.23573   0.82411   1.000
    O809    O    0.75046   0.73574   0.82411   1.000
    O810    O    0.75046   0.23573   0.82411   1.000
    O811    O    0.25046   0.73574   0.82411   1.000
    O812    O    0.75046   0.51428   0.82411   1.000
    O813    O    0.75046   0.01427   0.82411   1.000
    O814    O    0.25046   0.51428   0.82411   1.000
    O815    O    0.25046   0.01427   0.82411   1.000
    O816    O    0.31556   0.72559   0.84359   1.000
    O817    O    0.31555   0.22558   0.84359   1.000
    O818    O    0.81555   0.52443   0.84359   1.000
    O819    O    0.81555   0.02442   0.84359   1.000
    O820    O    0.31555   0.52443   0.84359   1.000
    O821    O    0.31555   0.02442   0.84359   1.000
    O822    O    0.81556   0.22558   0.84359   1.000
    O823    O    0.81556   0.72559   0.84359   1.000
    O824    O    0.61785   0.37501   0.85272   1.000
    O825    O    0.68117   0.37501   0.87965   1.000
    O826    O    0.61785   0.87501   0.85272   1.000
    O827    O    0.68117   0.87501   0.87965   1.000
    O828    O    0.11785   0.87501   0.85272   1.000
    O829    O    0.18117   0.87501   0.87965   1.000
    O830    O    0.11785   0.37500   0.85272   1.000
    O831    O    0.18117   0.37501   0.87965   1.000
    O832    O    0.38344   0.52369   0.85644   1.000
    O833    O    0.45219   0.51209   0.86110   1.000
    O834    O    0.88344   0.02368   0.85644   1.000
    O835    O    0.95219   0.01208   0.86110   1.000
    O836    O    0.88344   0.52369   0.85644   1.000
    O837    O    0.95219   0.51209   0.86110   1.000
    O838    O    0.38344   0.02368   0.85644   1.000
    O839    O    0.45219   0.01208   0.86110   1.000
    O840    O    0.38344   0.22632   0.85644   1.000
    O841    O    0.45219   0.23792   0.86110   1.000
    O842    O    0.38344   0.72633   0.85644   1.000
    O843    O    0.45219   0.73793   0.86110   1.000
    O844    O    0.88344   0.72633   0.85644   1.000
    O845    O    0.95219   0.73793   0.86110   1.000
    O846    O    0.88344   0.22632   0.85644   1.000
    O847    O    0.95219   0.23792   0.86110   1.000
    O848    O    0.56850   0.87501   0.89690   1.000
    O849    O    0.56850   0.37500   0.89690   1.000
    O850    O    0.06850   0.87501   0.89690   1.000
    O851    O    0.06850   0.37500   0.89690   1.000
    O852    O    0.83081   0.16661   0.89203   1.000
    O853    O    0.33081   0.66662   0.89203   1.000
    O854    O    0.33081   0.16661   0.89203   1.000
    O855    O    0.83081   0.58340   0.89203   1.000
    O856    O    0.83081   0.08339   0.89203   1.000
    O857    O    0.33081   0.58340   0.89203   1.000
    O858    O    0.33081   0.08339   0.89203   1.000
    O859    O    0.83081   0.66662   0.89203   1.000
    O860    O    0.73517   0.37501   0.91783   1.000
    O861    O    0.67088   0.37501   0.94199   1.000
    O862    O    0.23517   0.87501   0.91783   1.000
    O863    O    0.17088   0.87501   0.94199   1.000
    O864    O    0.23517   0.37501   0.91783   1.000
    O865    O    0.17088   0.37501   0.94199   1.000
    O866    O    0.73517   0.87501   0.91783   1.000
    O867    O    0.67088   0.87501   0.94199   1.000
    O868    O    0.74069   0.62501   0.92429   1.000
    O869    O    0.74068   0.12500   0.92429   1.000
    O870    O    0.24068   0.62501   0.92429   1.000
    O871    O    0.24068   0.12500   0.92429   1.000
    O872    O    0.03186   0.87501   0.94833   1.000
    O873    O    0.10241   0.87501   0.95252   1.000
    O874    O    0.53186   0.87501   0.94833   1.000
    O875    O    0.60241   0.87501   0.95252   1.000
    O876    O    0.53186   0.37500   0.94833   1.000
    O877    O    0.60241   0.37500   0.95252   1.000
    O878    O    0.03186   0.37500   0.94833   1.000
    O879    O    0.10241   0.37500   0.95252   1.000
loop_
    _geom_bond_atom_site_label_1
    _geom_bond_atom_site_label_2
    _geom_bond_distance
    _geom_bond_site_symmetry_2
    _ccdc_geom_bond_type
    C355   O384      0.68118      .   S
    C215   O384      0.68118      .   S
    C355   O385      0.67987      .   S
    C211   O385      0.67987      .   S
    C355   O386      1.01029  1_554   S
    C19    O386      1.01029      .   S
    C354   O387      0.68118      .   S
    C214   O387      0.68118      .   S
    C354   O388      0.67987      .   S
    C210   O388      0.67987      .   S
    C354   O389      1.01029  1_554   S
    C18    O389      1.01029      .   S
    C353   O390      0.68118      .   S
    C213   O390      0.68118      .   S
    C353   O391      0.67987      .   S
    C209   O391      0.67987      .   S
    C353   O392      1.01029  1_554   S
    C17    O392      1.01029      .   S
    C352   O393      0.68118      .   S
    C212   O393      0.68118      .   S
    C352   O394      0.67987      .   S
    C208   O394      0.67987      .   S
    C352   O395      1.01029  1_554   S
    C16    O395      1.01029      .   S
    C117   O396      0.54335      .   S
    C213   O396      0.54335      .   S
    C116   O397      0.54335      .   S
    C212   O397      0.54335      .   S
    C118   O398      0.54336      .   S
    C214   O398      0.54336      .   S
    C119   O399      0.54336      .   S
    C215   O399      0.54336      .   S
    C213   O400      0.66746      .   S
    C349   O400      0.66746      .   S
    C214   O401      0.66746      .   S
    C350   O401      0.66746      .   S
    C215   O402      0.66746      .   S
    C351   O402      0.66746      .   S
    C212   O403      0.66746      .   S
    C348   O403      0.66746      .   S
    C379   O404      1.14228      .   S
    C27    O404      1.14228      .   S
    C378   O405      1.14228      .   S
    C26    O405      1.14228      .   S
    C377   O406      1.14228      .   S
    C25    O406      1.14228      .   S
    C376   O407      1.14228      .   S
    C24    O407      1.14228      .   S
    C112   O408      0.54205      .   S
    C208   O408      0.54205      .   S
    C113   O409      0.54205      .   S
    C209   O409      0.54205      .   S
    C114   O410      0.54204      .   S
    C210   O410      0.54204      .   S
    C115   O411      0.54205      .   S
    C211   O411      0.54205      .   S
    C27    O412      1.01628      .   S
    C255   O412      1.01628      .   S
    C27    O413      1.01628      .   S
    C279   O413      1.01628      .   S
    C27    O414      1.01029      .   S
    C331   O414      1.01029  1_556   S
    C26    O415      1.01628      .   S
    C278   O415      1.01628      .   S
    C26    O416      1.01629      .   S
    C254   O416      1.01629      .   S
    C26    O417      1.01029      .   S
    C330   O417      1.01029  1_556   S
    C25    O418      1.01628      .   S
    C253   O418      1.01628      .   S
    C25    O419      1.01628      .   S
    C277   O419      1.01628      .   S
    C25    O420      1.01029      .   S
    C329   O420      1.01029  1_556   S
    C24    O421      1.01629      .   S
    C252   O421      1.01629      .   S
    C24    O422      1.01629      .   S
    C276   O422      1.01629      .   S
    C24    O423      1.01029      .   S
    C328   O423      1.01029  1_556   S
    C211   O424      0.66409      .   S
    C347   O424      0.66409      .   S
    C210   O425      0.66409      .   S
    C346   O425      0.66409      .   S
    C209   O426      0.66409      .   S
    C345   O426      0.66409      .   S
    C208   O427      0.66409      .   S
    C344   O427      0.66409      .   S
    C64    O428      0.54281      .   S
    C160   O428      0.54281      .   S
    C65    O429      0.54281      .   S
    C161   O429      0.54281      .   S
    C66    O430      0.54281      .   S
    C162   O430      0.54281      .   S
    C67    O431      0.54281      .   S
    C163   O431      0.54281      .   S
    C51    O432      0.54281      .   S
    C147   O432      0.54281      .   S
    C50    O433      0.54281      .   S
    C146   O433      0.54281      .   S
    C49    O434      0.54281      .   S
    C145   O434      0.54281      .   S
    C48    O435      0.54280      .   S
    C144   O435      0.54280      .   S
    C278   O436      0.68047      .   S
    C162   O436      0.68047      .   S
    C278   O437      0.67975      .   S
    C166   O437      0.67975      .   S
    C255   O438      0.68047      .   S
    C147   O438      0.68047      .   S
    C255   O439      0.67975      .   S
    C151   O439      0.67975      .   S
    C254   O440      0.68047      .   S
    C146   O440      0.68047      .   S
    C254   O441      0.67975      .   S
    C150   O441      0.67975      .   S
    C253   O442      0.68047      .   S
    C145   O442      0.68047      .   S
    C253   O443      0.67975      .   S
    C149   O443      0.67975      .   S
    C252   O444      0.68047      .   S
    C144   O444      0.68047      .   S
    C252   O445      0.67975      .   S
    C148   O445      0.67975      .   S
    C277   O446      0.68048      .   S
    C161   O446      0.68048      .   S
    C277   O447      0.67975      .   S
    C165   O447      0.67975      .   S
    C276   O448      0.68047      .   S
    C160   O448      0.68047      .   S
    C276   O449      0.67975      .   S
    C164   O449      0.67975      .   S
    C279   O450      0.68048      .   S
    C163   O450      0.68048      .   S
    C279   O451      0.67975      .   S
    C167   O451      0.67975      .   S
    C350   O452      0.68962      .   S
    C346   O452      0.68962      .   S
    C350   O453      1.07726      .   S
    C4     O453      1.07726  1_455   S
    C349   O454      0.68962      .   S
    C345   O454      0.68962      .   S
    C349   O455      1.07726      .   S
    C7     O455      1.07726      .   S
    C351   O456      0.68962      .   S
    C347   O456      0.68962      .   S
    C351   O457      1.07726      .   S
    C5     O457      1.07726  1_455   S
    C348   O458      0.68962      .   S
    C344   O458      0.68962      .   S
    C348   O459      1.07726      .   S
    C6     O459      1.07726      .   S
    C160   O460      0.66715      .   S
    C281   O460      0.66715      .   S
    C161   O461      0.66705  1_565   S
    C280   O461      0.66705      .   S
    C162   O462      0.66716      .   S
    C283   O462      0.66716      .   S
    C163   O463      0.66705  1_565   S
    C282   O463      0.66705      .   S
    C144   O464      0.66711      .   S
    C256   O464      0.66711      .   S
    C145   O465      0.66710      .   S
    C257   O465      0.66710      .   S
    C146   O466      0.66711      .   S
    C258   O466      0.66711      .   S
    C147   O467      0.66710      .   S
    C259   O467      0.66710      .   S
    C344   O468      1.12475      .   S
    C8     O468      1.12475      .   S
    C347   O469      1.12475      .   S
    C11    O469      1.12475      .   S
    C346   O470      1.12475      .   S
    C10    O470      1.12475      .   S
    C345   O471      1.12475      .   S
    C9     O471      1.12475      .   S
    C164   O472      0.54201      .   S
    C68    O472      0.54201      .   S
    C164   O473      0.66477      .   S
    C273   O473      0.66477      .   S
    C165   O474      0.54201      .   S
    C69    O474      0.54201      .   S
    C165   O475      0.66468  1_565   S
    C272   O475      0.66468      .   S
    C148   O476      0.54203      .   S
    C52    O476      0.54203      .   S
    C148   O477      0.66477      .   S
    C248   O477      0.66477      .   S
    C166   O478      0.54201      .   S
    C70    O478      0.54201      .   S
    C166   O479      0.66477      .   S
    C275   O479      0.66477      .   S
    C167   O480      0.54201      .   S
    C71    O480      0.54201      .   S
    C167   O481      0.66468  1_565   S
    C274   O481      0.66468      .   S
    C149   O482      0.54203      .   S
    C53    O482      0.54203      .   S
    C149   O483      0.66477      .   S
    C249   O483      0.66477      .   S
    C150   O484      0.54202      .   S
    C54    O484      0.54202      .   S
    C150   O485      0.66477      .   S
    C250   O485      0.66477      .   S
    C151   O486      0.54202      .   S
    C55    O486      0.54202      .   S
    C151   O487      0.66477      .   S
    C251   O487      0.66477      .   S
    C256   O488      0.68954      .   S
    C248   O488      0.68954      .   S
    C256   O489      1.08575      .   S
    C4     O489      1.08575      .   S
    C259   O490      0.68954      .   S
    C251   O490      0.68954      .   S
    C259   O491      1.08576      .   S
    C7     O491      1.08576      .   S
    C258   O492      0.68954      .   S
    C250   O492      0.68954      .   S
    C258   O493      1.08575      .   S
    C6     O493      1.08575      .   S
    C257   O494      0.68954      .   S
    C249   O494      0.68954      .   S
    C257   O495      1.08575      .   S
    C5     O495      1.08575      .   S
    C283   O496      0.68953      .   S
    C275   O496      0.68953      .   S
    C283   O497      1.08572      .   S
    C7     O497      1.08572      .   S
    C280   O498      0.68953      .   S
    C272   O498      0.68953      .   S
    C280   O499      1.08572      .   S
    C4     O499      1.08572      .   S
    C282   O500      0.68953      .   S
    C274   O500      0.68953      .   S
    C282   O501      1.08572      .   S
    C6     O501      1.08572      .   S
    C281   O502      0.68953      .   S
    C273   O502      0.68953      .   S
    C281   O503      1.08572      .   S
    C5     O503      1.08572      .   S
    C273   O504      1.10255      .   S
    C9     O504      1.10255      .   S
    C274   O505      1.10255      .   S
    C10    O505      1.10255      .   S
    C272   O506      1.10255      .   S
    C8     O506      1.10255      .   S
    C251   O507      1.10255      .   S
    C11    O507      1.10255      .   S
    C250   O508      1.10255      .   S
    C10    O508      1.10255      .   S
    C249   O509      1.10255      .   S
    C9     O509      1.10255      .   S
    C248   O510      1.10255      .   S
    C8     O510      1.10255      .   S
    C275   O511      1.10255      .   S
    C11    O511      1.10255      .   S
    C4     O512      1.09865  1_455   S
    C238   O512      1.09865      .   S
    C4     O513      1.09865  1_455   S
    C310   O513      1.09865      .   S
    C4     O514      1.12818      .   S
    C332   O514      1.12818      .   S
    C5     O515      1.09865  1_455   S
    C239   O515      1.09865      .   S
    C5     O516      1.09865  1_455   S
    C311   O516      1.09865      .   S
    C5     O517      1.12818      .   S
    C333   O517      1.12818      .   S
    C6     O518      1.09866      .   S
    C236   O518      1.09866      .   S
    C6     O519      1.09865      .   S
    C308   O519      1.09865      .   S
    C6     O520      1.12818      .   S
    C334   O520      1.12818      .   S
    C7     O521      1.09866      .   S
    C237   O521      1.09866      .   S
    C7     O522      1.09865      .   S
    C309   O522      1.09865      .   S
    C7     O523      1.12818      .   S
    C335   O523      1.12818      .   S
    C8     O524      1.08464      .   S
    C316   O524      1.08464      .   S
    C8     O525      1.08464      .   S
    C244   O525      1.08464      .   S
    C8     O526      1.08095      .   S
    C336   O526      1.08095      .   S
    C9     O527      1.08465      .   S
    C317   O527      1.08465      .   S
    C9     O528      1.08464      .   S
    C245   O528      1.08464      .   S
    C9     O529      1.08095      .   S
    C337   O529      1.08095      .   S
    C10    O530      1.08463      .   S
    C246   O530      1.08463      .   S
    C10    O531      1.08464      .   S
    C318   O531      1.08464      .   S
    C10    O532      1.08095      .   S
    C338   O532      1.08095      .   S
    C11    O533      1.08463      .   S
    C247   O533      1.08463      .   S
    C11    O534      1.08464      .   S
    C319   O534      1.08464      .   S
    C11    O535      1.08095      .   S
    C339   O535      1.08095      .   S
    C236   O536      0.68939      .   S
    C244   O536      0.68939      .   S
    C236   O537      0.66465      .   S
    C141   O537      0.66465  1_565   S
    C237   O538      0.68939      .   S
    C245   O538      0.68939      .   S
    C237   O539      0.66474      .   S
    C140   O539      0.66474      .   S
    C238   O540      0.68940      .   S
    C246   O540      0.68940      .   S
    C238   O541      0.66465      .   S
    C143   O541      0.66465  1_565   S
    C239   O542      0.68940      .   S
    C247   O542      0.68940      .   S
    C239   O543      0.66474      .   S
    C142   O543      0.66474      .   S
    C308   O544      0.68939      .   S
    C316   O544      0.68939      .   S
    C308   O545      0.66474      .   S
    C188   O545      0.66474      .   S
    C309   O546      0.68939      .   S
    C317   O546      0.68939      .   S
    C309   O547      0.66474      .   S
    C189   O547      0.66474      .   S
    C310   O548      0.68939      .   S
    C318   O548      0.68939      .   S
    C310   O549      0.66474      .   S
    C190   O549      0.66474      .   S
    C311   O550      0.68939      .   S
    C319   O550      0.68939      .   S
    C311   O551      0.66474      .   S
    C191   O551      0.66474      .   S
    C246   O552      0.66713      .   S
    C139   O552      0.66713  1_565   S
    C247   O553      0.66723      .   S
    C138   O553      0.66723      .   S
    C316   O554      0.66724      .   S
    C184   O554      0.66724      .   S
    C244   O555      0.66713      .   S
    C137   O555      0.66713  1_565   S
    C319   O556      0.66723      .   S
    C187   O556      0.66723      .   S
    C318   O557      0.66724      .   S
    C186   O557      0.66724      .   S
    C317   O558      0.66723      .   S
    C185   O558      0.66723      .   S
    C245   O559      0.66723      .   S
    C136   O559      0.66723      .   S
    C95    O560      0.54202      .   S
    C189   O560      0.54202      .   S
    C92    O561      0.54200  1_455   S
    C190   O561      0.54200      .   S
    C93    O562      0.54200  1_455   S
    C191   O562      0.54200      .   S
    C94    O563      0.54202      .   S
    C188   O563      0.54202      .   S
    C44    O564      0.54200  1_455   S
    C142   O564      0.54200      .   S
    C45    O565      0.54200  1_455   S
    C143   O565      0.54200      .   S
    C46    O566      0.54201      .   S
    C140   O566      0.54201      .   S
    C47    O567      0.54201      .   S
    C141   O567      0.54201      .   S
    C140   O568      0.67964      .   S
    C240   O568      0.67964      .   S
    C141   O569      0.67964      .   S
    C241   O569      0.67964      .   S
    C142   O570      0.67964      .   S
    C242   O570      0.67964      .   S
    C143   O571      0.67963      .   S
    C243   O571      0.67963      .   S
    C189   O572      0.67964      .   S
    C313   O572      0.67964      .   S
    C190   O573      0.67964      .   S
    C314   O573      0.67964      .   S
    C191   O574      0.67964      .   S
    C315   O574      0.67964      .   S
    C188   O575      0.67963      .   S
    C312   O575      0.67963      .   S
    C335   O576      0.68978      .   S
    C339   O576      0.68978      .   S
    C335   O577      0.66405      .   S
    C203   O577      0.66405      .   S
    C334   O578      0.68978      .   S
    C338   O578      0.68978      .   S
    C334   O579      0.66405      .   S
    C202   O579      0.66405      .   S
    C333   O580      0.68979      .   S
    C337   O580      0.68979      .   S
    C333   O581      0.66404      .   S
    C201   O581      0.66404      .   S
    C332   O582      0.68978      .   S
    C336   O582      0.68978      .   S
    C332   O583      0.66405      .   S
    C200   O583      0.66405      .   S
    C184   O584      0.68054      .   S
    C312   O584      0.68054      .   S
    C184   O585      0.54277      .   S
    C88    O585      0.54277      .   S
    C136   O586      0.68055      .   S
    C240   O586      0.68055      .   S
    C136   O587      0.54278      .   S
    C40    O587      0.54278      .   S
    C137   O588      0.68055      .   S
    C241   O588      0.68055      .   S
    C137   O589      0.54278      .   S
    C41    O589      0.54278      .   S
    C138   O590      0.68055      .   S
    C242   O590      0.68055      .   S
    C138   O591      0.54278      .   S
    C42    O591      0.54278      .   S
    C139   O592      0.68055      .   S
    C243   O592      0.68055      .   S
    C139   O593      0.54278      .   S
    C43    O593      0.54278      .   S
    C185   O594      0.68055      .   S
    C313   O594      0.68055      .   S
    C185   O595      0.54277      .   S
    C89    O595      0.54277      .   S
    C186   O596      0.68054      .   S
    C314   O596      0.68054      .   S
    C186   O597      0.54277      .   S
    C90    O597      0.54277      .   S
    C187   O598      0.68055      .   S
    C315   O598      0.68055      .   S
    C187   O599      0.54277      .   S
    C91    O599      0.54277      .   S
    C336   O600      0.66759      .   S
    C204   O600      0.66759      .   S
    C337   O601      0.66759      .   S
    C205   O601      0.66759      .   S
    C338   O602      0.66759      .   S
    C206   O602      0.66759      .   S
    C339   O603      0.66759      .   S
    C207   O603      0.66759      .   S
    C313   O604      1.01707      .   S
    C21    O604      1.01707      .   S
    C312   O605      1.01707      .   S
    C20    O605      1.01707      .   S
    C314   O606      1.01707      .   S
    C22    O606      1.01707      .   S
    C315   O607      1.01707      .   S
    C23    O607      1.01707      .   S
    C242   O608      1.01707      .   S
    C22    O608      1.01707      .   S
    C240   O609      1.01707      .   S
    C20    O609      1.01707      .   S
    C241   O610      1.01707      .   S
    C21    O610      1.01707      .   S
    C243   O611      1.01707      .   S
    C23    O611      1.01707      .   S
    C201   O612      0.54204      .   S
    C107   O612      0.54204  1_655   S
    C201   O613      0.67982      .   S
    C341   O613      0.67982      .   S
    C203   O614      0.54205      .   S
    C105   O614      0.54205      .   S
    C203   O615      0.67983      .   S
    C343   O615      0.67983      .   S
    C202   O616      0.54205      .   S
    C104   O616      0.54205      .   S
    C202   O617      0.67983      .   S
    C342   O617      0.67983      .   S
    C200   O618      0.54204      .   S
    C106   O618      0.54204  1_655   S
    C200   O619      0.67982      .   S
    C340   O619      0.67982      .   S
    C23    O620      1.14072  1_655   S
    C373   O620      1.14072      .   S
    C23    O621      1.01094      .   S
    C367   O621      1.01094      .   S
    C20    O622      1.14072      .   S
    C374   O622      1.14072      .   S
    C20    O623      1.01095      .   S
    C364   O623      1.01095      .   S
    C21    O624      1.14072      .   S
    C375   O624      1.14072      .   S
    C21    O625      1.01095      .   S
    C365   O625      1.01095      .   S
    C22    O626      1.14072  1_655   S
    C372   O626      1.14072      .   S
    C22    O627      1.01094      .   S
    C366   O627      1.01094      .   S
    C205   O628      0.54338      .   S
    C109   O628      0.54338      .   S
    C205   O629      0.68136      .   S
    C341   O629      0.68136      .   S
    C206   O630      0.54339      .   S
    C110   O630      0.54339      .   S
    C206   O631      0.68135      .   S
    C342   O631      0.68135      .   S
    C207   O632      0.54339      .   S
    C111   O632      0.54339      .   S
    C207   O633      0.68135      .   S
    C343   O633      0.68135      .   S
    C204   O634      0.54338      .   S
    C108   O634      0.54338      .   S
    C204   O635      0.68136      .   S
    C340   O635      0.68136      .   S
    C343   O636      1.01095      .   S
    C31    O636      1.01095      .   S
    C342   O637      1.01095      .   S
    C30    O637      1.01095      .   S
    C341   O638      1.01094      .   S
    C29    O638      1.01094      .   S
    C340   O639      1.01094      .   S
    C28    O639      1.01094      .   S
    C364   O640      0.68135      .   S
    C220   O640      0.68135      .   S
    C364   O641      0.67983      .   S
    C216   O641      0.67983      .   S
    C365   O642      0.68135      .   S
    C221   O642      0.68135      .   S
    C365   O643      0.67982      .   S
    C217   O643      0.67982      .   S
    C366   O644      0.68136      .   S
    C222   O644      0.68136      .   S
    C366   O645      0.67982      .   S
    C218   O645      0.67982      .   S
    C367   O646      0.68136      .   S
    C223   O646      0.68136      .   S
    C367   O647      0.67982      .   S
    C219   O647      0.67982      .   S
    C125   O648      0.54339      .   S
    C221   O648      0.54339      .   S
    C124   O649      0.54339      .   S
    C220   O649      0.54339      .   S
    C126   O650      0.54338      .   S
    C222   O650      0.54338      .   S
    C127   O651      0.54338      .   S
    C223   O651      0.54338      .   S
    C223   O652      0.66759      .   S
    C363   O652      0.66759      .   S
    C220   O653      0.66759      .   S
    C360   O653      0.66759      .   S
    C221   O654      0.66759      .   S
    C361   O654      0.66759      .   S
    C222   O655      0.66759      .   S
    C362   O655      0.66759      .   S
    C383   O656      1.14072      .   S
    C29    O656      1.14072  1_455   S
    C380   O657      1.14073      .   S
    C30    O657      1.14073      .   S
    C381   O658      1.14073      .   S
    C31    O658      1.14073      .   S
    C382   O659      1.14072      .   S
    C28    O659      1.14072  1_455   S
    C123   O660      0.54206      .   S
    C217   O660      0.54206      .   S
    C122   O661      0.54205      .   S
    C216   O661      0.54205      .   S
    C121   O662      0.54204  1_455   S
    C219   O662      0.54204      .   S
    C120   O663      0.54204  1_455   S
    C218   O663      0.54204      .   S
    C29    O664      1.01707      .   S
    C265   O664      1.01707      .   S
    C29    O665      1.01707      .   S
    C289   O665      1.01707      .   S
    C30    O666      1.01707      .   S
    C266   O666      1.01707      .   S
    C30    O667      1.01707      .   S
    C290   O667      1.01707      .   S
    C31    O668      1.01707      .   S
    C267   O668      1.01707      .   S
    C31    O669      1.01707      .   S
    C291   O669      1.01707      .   S
    C28    O670      1.01707      .   S
    C264   O670      1.01707      .   S
    C28    O671      1.01707      .   S
    C288   O671      1.01707      .   S
    C218   O672      0.66404      .   S
    C358   O672      0.66404      .   S
    C219   O673      0.66404      .   S
    C359   O673      0.66404      .   S
    C217   O674      0.66404      .   S
    C357   O674      0.66404      .   S
    C216   O675      0.66405      .   S
    C356   O675      0.66405      .   S
    C75    O676      0.54278      .   S
    C171   O676      0.54278      .   S
    C74    O677      0.54278      .   S
    C170   O677      0.54278      .   S
    C73    O678      0.54278      .   S
    C169   O678      0.54278      .   S
    C72    O679      0.54278      .   S
    C168   O679      0.54278      .   S
    C56    O680      0.54277      .   S
    C152   O680      0.54277      .   S
    C59    O681      0.54277      .   S
    C155   O681      0.54277      .   S
    C58    O682      0.54277      .   S
    C154   O682      0.54277      .   S
    C57    O683      0.54277      .   S
    C153   O683      0.54277      .   S
    C264   O684      0.68054      .   S
    C152   O684      0.68054      .   S
    C264   O685      0.67964      .   S
    C156   O685      0.67964      .   S
    C267   O686      0.68054      .   S
    C155   O686      0.68054      .   S
    C267   O687      0.67963      .   S
    C159   O687      0.67963      .   S
    C266   O688      0.68054      .   S
    C154   O688      0.68054      .   S
    C266   O689      0.67963      .   S
    C158   O689      0.67963      .   S
    C265   O690      0.68054      .   S
    C153   O690      0.68054      .   S
    C265   O691      0.67964      .   S
    C157   O691      0.67964      .   S
    C289   O692      0.68055      .   S
    C169   O692      0.68055      .   S
    C289   O693      0.67964      .   S
    C173   O693      0.67964      .   S
    C290   O694      0.68054      .   S
    C170   O694      0.68054      .   S
    C290   O695      0.67964      .   S
    C174   O695      0.67964      .   S
    C291   O696      0.68054      .   S
    C171   O696      0.68054      .   S
    C291   O697      0.67964      .   S
    C175   O697      0.67964      .   S
    C288   O698      0.68055      .   S
    C168   O698      0.68055      .   S
    C288   O699      0.67964      .   S
    C172   O699      0.67964      .   S
    C363   O700      0.68979      .   S
    C359   O700      0.68979      .   S
    C363   O701      1.08095      .   S
    C3     O701      1.08095      .   S
    C361   O702      0.68978      .   S
    C357   O702      0.68978      .   S
    C361   O703      1.08095      .   S
    C1     O703      1.08095      .   S
    C362   O704      0.68979      .   S
    C358   O704      0.68979      .   S
    C362   O705      1.08095      .   S
    C2     O705      1.08095      .   S
    C360   O706      0.68978      .   S
    C356   O706      0.68978      .   S
    C360   O707      1.08095      .   S
    C0     O707      1.08095      .   S
    C155   O708      0.66724      .   S
    C271   O708      0.66724      .   S
    C154   O709      0.66723      .   S
    C270   O709      0.66723      .   S
    C153   O710      0.66724      .   S
    C269   O710      0.66724      .   S
    C152   O711      0.66724      .   S
    C268   O711      0.66724      .   S
    C171   O712      0.66723      .   S
    C294   O712      0.66723      .   S
    C168   O713      0.66713  1_545   S
    C293   O713      0.66713      .   S
    C169   O714      0.66723      .   S
    C292   O714      0.66723      .   S
    C170   O715      0.66713  1_545   S
    C295   O715      0.66713      .   S
    C357   O716      1.12811      .   S
    C13    O716      1.12811      .   S
    C358   O717      1.12811      .   S
    C14    O717      1.12811      .   S
    C359   O718      1.12811      .   S
    C15    O718      1.12811      .   S
    C356   O719      1.12811      .   S
    C12    O719      1.12811      .   S
    C157   O720      0.54200      .   S
    C63    O720      0.54200  1_655   S
    C157   O721      0.66474      .   S
    C261   O721      0.66474      .   S
    C174   O722      0.54201      .   S
    C76    O722      0.54201      .   S
    C174   O723      0.66465  1_545   S
    C287   O723      0.66465      .   S
    C173   O724      0.54200      .   S
    C79    O724      0.54200  1_655   S
    C173   O725      0.66474      .   S
    C284   O725      0.66474      .   S
    C172   O726      0.54200      .   S
    C78    O726      0.54200  1_655   S
    C172   O727      0.66465  1_545   S
    C285   O727      0.66465      .   S
    C159   O728      0.54201      .   S
    C61    O728      0.54201      .   S
    C159   O729      0.66474      .   S
    C263   O729      0.66474      .   S
    C158   O730      0.54202      .   S
    C60    O730      0.54202      .   S
    C158   O731      0.66474      .   S
    C262   O731      0.66474      .   S
    C156   O732      0.54200      .   S
    C62    O732      0.54200  1_655   S
    C156   O733      0.66474      .   S
    C260   O733      0.66474      .   S
    C175   O734      0.54201      .   S
    C77    O734      0.54201      .   S
    C175   O735      0.66474      .   S
    C286   O735      0.66474      .   S
    C269   O736      0.68939      .   S
    C261   O736      0.68939      .   S
    C269   O737      1.08464      .   S
    C1     O737      1.08464      .   S
    C292   O738      0.68940      .   S
    C284   O738      0.68940      .   S
    C292   O739      1.08464      .   S
    C0     O739      1.08464      .   S
    C293   O740      0.68940      .   S
    C285   O740      0.68940      .   S
    C293   O741      1.08463      .   S
    C1     O741      1.08463      .   S
    C271   O742      0.68938      .   S
    C263   O742      0.68938      .   S
    C271   O743      1.08465      .   S
    C3     O743      1.08465      .   S
    C270   O744      0.68939      .   S
    C262   O744      0.68939      .   S
    C270   O745      1.08464      .   S
    C2     O745      1.08464      .   S
    C268   O746      0.68939      .   S
    C260   O746      0.68939      .   S
    C268   O747      1.08464      .   S
    C0     O747      1.08464      .   S
    C294   O748      0.68939      .   S
    C286   O748      0.68939      .   S
    C294   O749      1.08465      .   S
    C2     O749      1.08465      .   S
    C295   O750      0.68939      .   S
    C287   O750      0.68939      .   S
    C295   O751      1.08464      .   S
    C3     O751      1.08464      .   S
    C284   O752      1.09861      .   S
    C14    O752      1.09861  1_655   S
    C261   O753      1.09861      .   S
    C15    O753      1.09861  1_655   S
    C287   O754      1.09861      .   S
    C13    O754      1.09861      .   S
    C286   O755      1.09862      .   S
    C12    O755      1.09862      .   S
    C285   O756      1.09861      .   S
    C15    O756      1.09861  1_655   S
    C260   O757      1.09860      .   S
    C14    O757      1.09860  1_655   S
    C263   O758      1.09862      .   S
    C13    O758      1.09862      .   S
    C262   O759      1.09861      .   S
    C12    O759      1.09861      .   S
    C1     O760      1.10224      .   S
    C225   O760      1.10224      .   S
    C1     O761      1.10252      .   S
    C297   O761      1.10252      .   S
    C1     O762      1.12475      .   S
    C321   O762      1.12475      .   S
    C0     O763      1.10224      .   S
    C224   O763      1.10224      .   S
    C0     O764      1.10251      .   S
    C296   O764      1.10251      .   S
    C0     O765      1.12475      .   S
    C320   O765      1.12475      .   S
    C2     O766      1.10224      .   S
    C226   O766      1.10224      .   S
    C2     O767      1.10251      .   S
    C298   O767      1.10251      .   S
    C2     O768      1.12475      .   S
    C322   O768      1.12475      .   S
    C3     O769      1.10224      .   S
    C227   O769      1.10224      .   S
    C3     O770      1.10252      .   S
    C299   O770      1.10252      .   S
    C3     O771      1.12475      .   S
    C323   O771      1.12475      .   S
    C12    O772      1.08552      .   S
    C304   O772      1.08552      .   S
    C12    O773      1.08576      .   S
    C232   O773      1.08576      .   S
    C12    O774      1.07733      .   S
    C326   O774      1.07733      .   S
    C13    O775      1.08576      .   S
    C305   O775      1.08576      .   S
    C13    O776      1.08575      .   S
    C233   O776      1.08575      .   S
    C13    O777      1.07733      .   S
    C327   O777      1.07733      .   S
    C14    O778      1.08576      .   S
    C234   O778      1.08576      .   S
    C14    O779      1.08575      .   S
    C306   O779      1.08575      .   S
    C14    O780      1.07732  1_655   S
    C324   O780      1.07732      .   S
    C15    O781      1.08575      .   S
    C307   O781      1.08575      .   S
    C15    O782      1.08574      .   S
    C235   O782      1.08574      .   S
    C15    O783      1.07733  1_655   S
    C325   O783      1.07733      .   S
    C225   O784      0.68968      .   S
    C233   O784      0.68968      .   S
    C225   O785      0.66471      .   S
    C132   O785      0.66471  1_545   S
    C224   O786      0.68968      .   S
    C232   O786      0.68968      .   S
    C224   O787      0.66481      .   S
    C133   O787      0.66481      .   S
    C226   O788      0.68968      .   S
    C234   O788      0.68968      .   S
    C226   O789      0.66481      .   S
    C135   O789      0.66481      .   S
    C227   O790      0.68968      .   S
    C235   O790      0.68968      .   S
    C227   O791      0.66471      .   S
    C134   O791      0.66471  1_545   S
    C296   O792      0.68941      .   S
    C304   O792      0.68941      .   S
    C296   O793      0.66453      .   S
    C180   O793      0.66453      .   S
    C297   O794      0.68954      .   S
    C305   O794      0.68954      .   S
    C297   O795      0.66453      .   S
    C181   O795      0.66453      .   S
    C298   O796      0.68954      .   S
    C306   O796      0.68954      .   S
    C298   O797      0.66453      .   S
    C182   O797      0.66453      .   S
    C299   O798      0.68954      .   S
    C307   O798      0.68954      .   S
    C299   O799      0.66453      .   S
    C183   O799      0.66453      .   S
    C304   O800      0.66751      .   S
    C176   O800      0.66751      .   S
    C234   O801      0.66716      .   S
    C131   O801      0.66716      .   S
    C307   O802      0.66715      .   S
    C179   O802      0.66715      .   S
    C306   O803      0.66716      .   S
    C178   O803      0.66716      .   S
    C305   O804      0.66715      .   S
    C177   O804      0.66715      .   S
    C235   O805      0.66706      .   S
    C130   O805      0.66706  1_545   S
    C233   O806      0.66706      .   S
    C128   O806      0.66706  1_545   S
    C232   O807      0.66716      .   S
    C129   O807      0.66716      .   S
    C84    O808      0.54201      .   S
    C180   O808      0.54201      .   S
    C87    O809      0.54201      .   S
    C183   O809      0.54201      .   S
    C86    O810      0.54201      .   S
    C182   O810      0.54201      .   S
    C85    O811      0.54201      .   S
    C181   O811      0.54201      .   S
    C39    O812      0.54201      .   S
    C135   O812      0.54201      .   S
    C38    O813      0.54201      .   S
    C134   O813      0.54201      .   S
    C37    O814      0.54201      .   S
    C133   O814      0.54201      .   S
    C36    O815      0.54201      .   S
    C132   O815      0.54201      .   S
    C181   O816      0.68005      .   S
    C301   O816      0.68005      .   S
    C180   O817      0.68005      .   S
    C300   O817      0.68005      .   S
    C135   O818      0.68006      .   S
    C231   O818      0.68006      .   S
    C134   O819      0.68006      .   S
    C230   O819      0.68006      .   S
    C133   O820      0.68006      .   S
    C229   O820      0.68006      .   S
    C132   O821      0.68006      .   S
    C228   O821      0.68006      .   S
    C182   O822      0.68005      .   S
    C302   O822      0.68005      .   S
    C183   O823      0.68005      .   S
    C303   O823      0.68005      .   S
    C322   O824      0.68963      .   S
    C326   O824      0.68963      .   S
    C322   O825      0.66409      .   S
    C194   O825      0.66409      .   S
    C323   O826      0.68962      .   S
    C327   O826      0.68962      .   S
    C323   O827      0.66409      .   S
    C195   O827      0.66409      .   S
    C321   O828      0.68962      .   S
    C325   O828      0.68962      .   S
    C321   O829      0.66409      .   S
    C193   O829      0.66409      .   S
    C320   O830      0.68962      .   S
    C324   O830      0.68962      .   S
    C320   O831      0.66409      .   S
    C192   O831      0.66409      .   S
    C129   O832      0.68047      .   S
    C229   O832      0.68047      .   S
    C129   O833      0.54281      .   S
    C33    O833      0.54281      .   S
    C130   O834      0.68047      .   S
    C230   O834      0.68047      .   S
    C130   O835      0.54281      .   S
    C34    O835      0.54281      .   S
    C131   O836      0.68047      .   S
    C231   O836      0.68047      .   S
    C131   O837      0.54281      .   S
    C35    O837      0.54281      .   S
    C128   O838      0.68047      .   S
    C228   O838      0.68047      .   S
    C128   O839      0.54281      .   S
    C32    O839      0.54281      .   S
    C176   O840      0.68048      .   S
    C300   O840      0.68048      .   S
    C176   O841      0.54280      .   S
    C80    O841      0.54280      .   S
    C177   O842      0.68048      .   S
    C301   O842      0.68048      .   S
    C177   O843      0.54280      .   S
    C81    O843      0.54280      .   S
    C179   O844      0.68047      .   S
    C303   O844      0.68047      .   S
    C179   O845      0.54280      .   S
    C83    O845      0.54280      .   S
    C178   O846      0.68047      .   S
    C302   O846      0.68047      .   S
    C178   O847      0.54281      .   S
    C82    O847      0.54281      .   S
    C327   O848      0.66746      .   S
    C199   O848      0.66746      .   S
    C326   O849      0.66746      .   S
    C198   O849      0.66746      .   S
    C325   O850      0.66746      .   S
    C197   O850      0.66746      .   S
    C324   O851      0.66746      .   S
    C196   O851      0.66746      .   S
    C302   O852      1.01629      .   S
    C18    O852      1.01629      .   S
    C301   O853      1.01629      .   S
    C17    O853      1.01629      .   S
    C300   O854      1.01629      .   S
    C16    O854      1.01629      .   S
    C231   O855      1.01628      .   S
    C19    O855      1.01628      .   S
    C230   O856      1.01628      .   S
    C18    O856      1.01628      .   S
    C229   O857      1.01628      .   S
    C17    O857      1.01628      .   S
    C228   O858      1.01628      .   S
    C16    O858      1.01628      .   S
    C303   O859      1.01629      .   S
    C19    O859      1.01629      .   S
    C194   O860      0.54205      .   S
    C98    O860      0.54205      .   S
    C194   O861      0.67987      .   S
    C330   O861      0.67987      .   S
    C193   O862      0.54205      .   S
    C97    O862      0.54205      .   S
    C193   O863      0.67987      .   S
    C329   O863      0.67987      .   S
    C192   O864      0.54205      .   S
    C96    O864      0.54205      .   S
    C192   O865      0.67987      .   S
    C328   O865      0.67987      .   S
    C195   O866      0.54205      .   S
    C99    O866      0.54205      .   S
    C195   O867      0.67987      .   S
    C331   O867      0.67987      .   S
    C19    O868      1.14228      .   S
    C371   O868      1.14228      .   S
    C18    O869      1.14228      .   S
    C370   O869      1.14228      .   S
    C17    O870      1.14228      .   S
    C369   O870      1.14228      .   S
    C16    O871      1.14228      .   S
    C368   O871      1.14228      .   S
    C197   O872      0.54336      .   S
    C101   O872      0.54336      .   S
    C197   O873      0.68118      .   S
    C329   O873      0.68118      .   S
    C199   O874      0.54335      .   S
    C103   O874      0.54335      .   S
    C199   O875      0.68118      .   S
    C331   O875      0.68118      .   S
    C198   O876      0.54335      .   S
    C102   O876      0.54335      .   S
    C198   O877      0.68119      .   S
    C330   O877      0.68119      .   S
    C196   O878      0.54336      .   S
    C100   O878      0.54336      .   S
    C196   O879      0.68118      .   S
    C328   O879      0.68118      .   S
