# CIF file generated by openbabel 2.4.90, see http://openbabel.sf.net
data_I
_chemical_name_common ''
_cell_length_a 6.045
_cell_length_b 14.041
_cell_length_c 15.6335
_cell_angle_alpha 90.032
_cell_angle_beta 90.648
_cell_angle_gamma 90.003
_space_group_name_H-M_alt 'P 1'
_space_group_name_Hall 'P 1'
loop_
    _symmetry_equiv_pos_as_xyz
    x,y,z
loop_
    _atom_site_label
    _atom_site_type_symbol
    _atom_site_fract_x
    _atom_site_fract_y
    _atom_site_fract_z
    _atom_site_occupancy
    H0      H    0.84748   0.30082   0.67902   1.000
    H1      H    0.82311   0.18334   0.80893   1.000
    H2      H    0.65218   0.79923   0.82224   1.000
    H3      H    0.67685   0.68252   0.69164   1.000
    H4      H    0.15261   0.69916   0.32098   1.000
    H5      H    0.17698   0.81664   0.19107   1.000
    H6      H    0.34789   0.20076   0.17777   1.000
    H7      H    0.32322   0.31746   0.30836   1.000
    C8      C    0.18024   0.19662   0.82467   1.000
    C9      C    0.97617   0.21478   0.78657   1.000
    C10     C    0.98964   0.27864   0.71737   1.000
    C11     C    0.20406   0.31014   0.70375   1.000
    C12     C    0.31978   0.69586   0.67585   1.000
    C13     C    0.52372   0.71379   0.71413   1.000
    C14     C    0.51015   0.77726   0.78369   1.000
    C15     C    0.29566   0.80861   0.79744   1.000
    C16     C    0.81984   0.80336   0.17533   1.000
    C17     C    0.02392   0.78521   0.21343   1.000
    C18     C    0.01043   0.72135   0.28263   1.000
    C19     C    0.79601   0.68984   0.29625   1.000
    C20     C    0.68028   0.30412   0.32415   1.000
    C21     C    0.47634   0.28619   0.28587   1.000
    C22     C    0.48992   0.22273   0.21631   1.000
    C23     C    0.70441   0.19138   0.20256   1.000
    S24     S    0.38823   0.26015   0.77606   1.000
    S25     S    0.11159   0.75891   0.72488   1.000
    S26     S    0.61184   0.73984   0.22394   1.000
    S27     S    0.88848   0.24108   0.27513   1.000
loop_
    _geom_bond_atom_site_label_1
    _geom_bond_atom_site_label_2
    _geom_bond_distance
    _geom_bond_site_symmetry_2
    _ccdc_geom_bond_type
    C16    C17       1.38745  1_655   S
    C16    S26       1.72517      .   S
    H6     C22       1.08787      .   S
    H5     C17       1.08649      .   S
    C23    C22       1.38828      .   S
    C23    S27       1.72694      .   S
    C17    C18       1.40867      .   S
    C22    C21       1.40870      .   S
    S26    C19       1.72703      .   S
    S27    C20       1.72515      .   S
    C18    C19       1.38829  1_455   S
    C18    H4        1.08800      .   S
    C21    H7        1.08646      .   S
    C21    C20       1.38724      .   S
    C12    C13       1.38723      .   S
    C12    S25       1.72517      .   S
    H0     C10       1.08792      .   S
    H3     C13       1.08645      .   S
    C11    C10       1.38829  1_455   S
    C11    S24       1.72705      .   S
    C13    C14       1.40870      .   S
    C10    C9        1.40863      .   S
    S25    C15       1.72693      .   S
    S24    C8        1.72517      .   S
    C14    C15       1.38827      .   S
    C14    H2        1.08787      .   S
    C9     H1        1.08650      .   S
    C9     C8        1.38743  1_655   S
