# CIF file generated by openbabel 2.4.90, see http://openbabel.sf.net
data_I
_chemical_name_common ''
_cell_length_a 6.045
_cell_length_b 14.041
_cell_length_c 15.6335
_cell_angle_alpha 90.032
_cell_angle_beta 90.648
_cell_angle_gamma 90.003
_space_group_name_H-M_alt 'P 1'
_space_group_name_Hall 'P 1'
loop_
    _symmetry_equiv_pos_as_xyz
    x,y,z
loop_
    _atom_site_label
    _atom_site_type_symbol
    _atom_site_fract_x
    _atom_site_fract_y
    _atom_site_fract_z
    _atom_site_occupancy
    Sr0     Sr   0.23340   0.50817   0.43857   1.000
    Sr1     Sr   0.73338   0.99153   0.93874   1.000
    Sr2     Sr   0.76667   0.49182   0.56143   1.000
    C3      C    0.22850   0.13250   0.89706   1.000
    C4      C    0.28764   0.37733   0.63836   1.000
    C5      C    0.27160   0.63238   0.60294   1.000
    C6      C    0.21206   0.87567   0.86298   1.000
    C7      C    0.77158   0.86749   0.10294   1.000
    C8      C    0.71244   0.62266   0.36165   1.000
    C9      C    0.72847   0.36761   0.39706   1.000
    Sr10    Sr   0.26671   0.00845   0.06126   1.000
    C11     C    0.78801   0.12432   0.13702   1.000
    O12     O    0.42887   0.11604   0.91856   1.000
    O13     O    0.06421   0.09591   0.93688   1.000
    O14     O    0.49435   0.39472   0.63957   1.000
    O15     O    0.14736   0.41290   0.58524   1.000
    O16     O    0.07120   0.61606   0.58137   1.000
    O17     O    0.43582   0.59623   0.56274   1.000
    O18     O    0.00476   0.89166   0.86288   1.000
    O19     O    0.35297   0.91273   0.91503   1.000
    O20     O    0.57121   0.88395   0.08144   1.000
    O21     O    0.93585   0.90408   0.06312   1.000
    O22     O    0.50572   0.60527   0.36043   1.000
    O23     O    0.85271   0.58709   0.41476   1.000
    O24     O    0.92887   0.38393   0.41863   1.000
    O25     O    0.56424   0.40376   0.43726   1.000
    O26     O    0.99533   0.10833   0.13711   1.000
    O27     O    0.64711   0.08726   0.08497   1.000
loop_
    _geom_bond_atom_site_label_1
    _geom_bond_atom_site_label_2
    _geom_bond_distance
    _geom_bond_site_symmetry_2
    _ccdc_geom_bond_type
    Sr10   O21       2.47982  1_445   S
    Sr10   O26       2.47108  1_455   S
    O21    C7        1.28529      .   S
    O20    C7        1.27450      .   S
    O27    C11       1.28148      .   S
    C11    O26       1.27320      .   S
    O22    C8        1.27313      .   S
    O22    Sr0       2.47155      .   S
    C8     O23       1.28163      .   S
    C9     O24       1.27452      .   S
    C9     O25       1.28526      .   S
    O25    Sr0       2.47998      .   S
    Sr2    O17       2.48006      .   S
    Sr2    O14       2.47155      .   S
    O17    C5        1.28528      .   S
    O16    C5        1.27453      .   S
    O15    C4        1.28163      .   S
    C4     O14       1.27313      .   S
    O18    C6        1.27308      .   S
    O18    Sr1       2.47114  1_455   S
    C6     O19       1.28148      .   S
    C3     O12       1.27451      .   S
    C3     O13       1.28529      .   S
    O13    Sr1       2.47978  1_445   S
    O12    Sr10      2.87625  1_556   S
    O12    Sr1       2.55574  1_545   S
    O13    Sr10      2.59545  1_556   S
    O15    Sr0       2.71068      .   S
    O15    Sr2       2.57754  1_455   S
    O16    Sr0       2.87847      .   S
    O16    Sr2       2.55243  1_455   S
    O17    Sr0       2.59568      .   S
    O19    Sr10      2.70711  1_566   S
    O19    Sr1       2.57484      .   S
    O20    Sr10      2.55569  1_565   S
    O20    Sr1       2.87625  1_554   S
    O21    Sr1       2.59534  1_554   S
    O23    Sr0       2.57756  1_655   S
    O23    Sr2       2.71065      .   S
    O24    Sr0       2.55247  1_655   S
    O24    Sr2       2.87847      .   S
    O25    Sr2       2.59576      .   S
    O27    Sr10      2.57481      .   S
    O27    Sr1       2.70714  1_544   S
