# CIF file generated by openbabel 2.4.90, see http://openbabel.sf.net
data_I
_chemical_name_common ''
_cell_length_a 23.442
_cell_length_b 23.974
_cell_length_c 14.059
_cell_angle_alpha 112.345
_cell_angle_beta 89.896
_cell_angle_gamma 118.644
_space_group_name_H-M_alt 'P 1'
_space_group_name_Hall 'P 1'
loop_
    _symmetry_equiv_pos_as_xyz
    x,y,z
loop_
    _atom_site_label
    _atom_site_type_symbol
    _atom_site_fract_x
    _atom_site_fract_y
    _atom_site_fract_z
    _atom_site_occupancy
    C0      C    0.20526   0.49639   0.89786   1.000
    C1      C    0.20519   0.99632   0.89780   1.000
    C2      C    0.70529   0.49636   0.89782   1.000
    C3      C    0.70522   0.99629   0.89776   1.000
    C4      C    0.16033   0.22671   0.12155   1.000
    C5      C    0.16037   0.72674   0.12165   1.000
    C6      C    0.66038   0.22668   0.12159   1.000
    C7      C    0.66042   0.72671   0.12170   1.000
    C8      C    0.29275   0.49878   0.40040   1.000
    C9      C    0.29275   0.99881   0.40052   1.000
    C10     C    0.79278   0.49876   0.40046   1.000
    C11     C    0.79277   0.99879   0.40055   1.000
    C12     C    0.06531   0.22464   0.61967   1.000
    C13     C    0.06532   0.72458   0.61961   1.000
    C14     C    0.56531   0.22463   0.61966   1.000
    C15     C    0.56532   0.72457   0.61959   1.000
