# CIF file generated by openbabel 2.4.90, see http://openbabel.sf.net
data_I
_chemical_name_common ''
_cell_length_a 23.442
_cell_length_b 23.974
_cell_length_c 14.059
_cell_angle_alpha 112.345
_cell_angle_beta 89.896
_cell_angle_gamma 118.644
_space_group_name_H-M_alt 'P 1'
_space_group_name_Hall 'P 1'
loop_
    _symmetry_equiv_pos_as_xyz
    x,y,z
loop_
    _atom_site_label
    _atom_site_type_symbol
    _atom_site_fract_x
    _atom_site_fract_y
    _atom_site_fract_z
    _atom_site_occupancy
    N0      N    0.93004   0.35756   0.00376   1.000
    N1      N    0.20890   0.61541   0.02203   1.000
    N2      N    0.70895   0.61538   0.02204   1.000
    N3      N    0.43007   0.85748   0.00375   1.000
    N4      N    0.93004   0.85749   0.00374   1.000
    N5      N    0.90719   0.61599   0.52603   1.000
    N6      N    0.40718   0.61601   0.52602   1.000
    N7      N    0.43007   0.35755   0.00375   1.000
    N8      N    0.90718   0.11606   0.52610   1.000
    N9      N    0.42781   0.35766   0.50381   1.000
    N10     N    0.20883   0.11535   0.02197   1.000
    N11     N    0.70888   0.11533   0.02197   1.000
    N12     N    0.42781   0.85764   0.50385   1.000
    N13     N    0.92783   0.85764   0.50384   1.000
    N14     N    0.92783   0.35767   0.50383   1.000
    N15     N    0.40716   0.11607   0.52608   1.000
    Zr16    Zr   0.71318   0.86258   0.26051   1.000
    O17     O    0.62919   0.85807   0.33334   1.000
    O18     O    0.63298   0.86439   0.18374   1.000
    O19     O    0.70046   0.75939   0.15919   1.000
    O20     O    0.79022   0.96737   0.36920   1.000
    Zr21    Zr   0.71315   0.36255   0.26042   1.000
    O22     O    0.63297   0.36439   0.18367   1.000
    O23     O    0.62917   0.35806   0.33325   1.000
    O24     O    0.70042   0.25935   0.15910   1.000
    O25     O    0.79021   0.46733   0.36911   1.000
    Zr26    Zr   0.64832   0.85983   0.75743   1.000
    O27     O    0.55842   0.75778   0.65826   1.000
    O28     O    0.72807   0.85559   0.83036   1.000
    O29     O    0.73039   0.86200   0.68084   1.000
    O30     O    0.67647   0.96533   0.86607   1.000
    Zr31    Zr   0.14830   0.85985   0.75750   1.000
    O32     O    0.23038   0.86202   0.68091   1.000
    O33     O    0.22807   0.85560   0.83044   1.000
    O34     O    0.17644   0.96536   0.86611   1.000
    O35     O    0.05842   0.75779   0.65831   1.000
    Zr36    Zr   0.64834   0.35989   0.75752   1.000
    O37     O    0.67651   0.46539   0.86615   1.000
    O38     O    0.72809   0.35564   0.83046   1.000
    O39     O    0.73040   0.36205   0.68091   1.000
    O40     O    0.55843   0.25784   0.65834   1.000
    Zr41    Zr   0.14833   0.35991   0.75756   1.000
    O42     O    0.17649   0.46542   0.86617   1.000
    O43     O    0.22809   0.35566   0.83048   1.000
    O44     O    0.23039   0.36207   0.68093   1.000
    O45     O    0.05843   0.25785   0.65837   1.000
    Zr46    Zr   0.21314   0.86261   0.26047   1.000
    O47     O    0.20042   0.75942   0.15915   1.000
    O48     O    0.29020   0.96739   0.36917   1.000
    O49     O    0.13295   0.86441   0.18372   1.000
    O50     O    0.12917   0.85809   0.33332   1.000
    Zr51    Zr   0.21312   0.36258   0.26038   1.000
    O52     O    0.20038   0.25938   0.15907   1.000
    O53     O    0.29019   0.46735   0.36909   1.000
    O54     O    0.13294   0.36441   0.18365   1.000
    O55     O    0.12915   0.35808   0.33324   1.000
loop_
    _geom_bond_atom_site_label_1
    _geom_bond_atom_site_label_2
    _geom_bond_distance
    _geom_bond_site_symmetry_2
    _ccdc_geom_bond_type
    Zr16   O17       2.19300      .   S
    N12    O17       5.28791      .   S
    Zr16   O18       2.19588      .   S
    N3     O18       5.29410      .   S
    Zr16   O19       2.20298      .   S
    N2     O19       3.35745      .   S
    Zr16   O20       2.15621      .   S
    N8     O20       3.12455  1_545   S
    Zr21   O22       2.19603      .   S
    N7     O22       5.29428      .   S
    Zr21   O23       2.19301      .   S
    N9     O23       5.28820      .   S
    Zr21   O24       2.20292      .   S
    N11    O24       3.35734      .   S
    Zr21   O25       2.15618      .   S
    N5     O25       3.12453      .   S
    Zr26   O27       2.20103      .   S
    N6     O27       3.35335      .   S
    Zr26   O28       2.19686      .   S
    N4     O28       5.30189  1_554   S
    Zr26   O29       2.19157      .   S
    N13    O29       5.27737      .   S
    Zr26   O30       2.15214      .   S
    N11    O30       3.11542  1_544   S
    Zr31   O32       2.19153      .   S
    N12    O32       5.27774      .   S
    Zr31   O33       2.19725      .   S
    N3     O33       5.30229  1_554   S
    Zr31   O34       2.15217      .   S
    N10    O34       3.11546  1_544   S
    Zr31   O35       2.20110      .   S
    N5     O35       3.35341  1_655   S
    Zr36   O37       2.15198      .   S
    N2     O37       3.11517  1_554   S
    Zr36   O38       2.19670      .   S
    N0     O38       5.30088  1_554   S
    Zr36   O39       2.19147      .   S
    N14    O39       5.27757      .   S
    Zr36   O40       2.20121      .   S
    N15    O40       3.35365      .   S
    Zr41   O42       2.15205      .   S
    N1     O42       3.11524  1_554   S
    Zr41   O43       2.19694      .   S
    N7     O43       5.30145  1_554   S
    Zr41   O44       2.19162      .   S
    N9     O44       5.27784      .   S
    Zr41   O45       2.20124      .   S
    N8     O45       3.35364  1_655   S
    Zr46   O47       2.20289      .   S
    N1     O47       3.35729      .   S
    Zr46   O48       2.15624      .   S
    N15    O48       3.12456  1_545   S
    Zr46   O49       2.19569      .   S
    N4     O49       5.29365  1_655   S
    Zr46   O50       2.19272      .   S
    N13    O50       5.28712  1_655   S
    Zr51   O52       2.20284      .   S
    N10    O52       3.35720      .   S
    Zr51   O53       2.15622      .   S
    N6     O53       3.12456      .   S
    Zr51   O54       2.19580      .   S
    N0     O54       5.29375  1_655   S
    Zr51   O55       2.19285      .   S
    N14    O55       5.28754  1_655   S
