# CIF file generated by openbabel 2.4.90, see http://openbabel.sf.net
data_I
_chemical_name_common ''
_cell_length_a 23.442
_cell_length_b 23.974
_cell_length_c 14.059
_cell_angle_alpha 112.345
_cell_angle_beta 89.896
_cell_angle_gamma 118.644
_space_group_name_H-M_alt 'P 1'
_space_group_name_Hall 'P 1'
loop_
    _symmetry_equiv_pos_as_xyz
    x,y,z
loop_
    _atom_site_label
    _atom_site_type_symbol
    _atom_site_fract_x
    _atom_site_fract_y
    _atom_site_fract_z
    _atom_site_occupancy
    C0      C    0.16817   0.35880   0.75529   1.000
    C1      C    0.16816   0.85875   0.75525   1.000
    C2      C    0.66818   0.35876   0.75523   1.000
    C3      C    0.66817   0.85872   0.75500   1.000
    C4      C    0.19290   0.36274   0.25987   1.000
    C5      C    0.19292   0.86277   0.25999   1.000
    C6      C    0.69292   0.36272   0.25989   1.000
    C7      C    0.69295   0.86275   0.26002   1.000
    C8      C    0.26889   0.22037   0.16551   1.000
    C9      C    0.26897   0.72043   0.16557   1.000
    C10     C    0.76896   0.22035   0.16550   1.000
    C11     C    0.76903   0.72041   0.16557   1.000
    C12     C    0.07780   0.10301   0.95457   1.000
    C13     C    0.07785   0.60305   0.95468   1.000
    C14     C    0.57783   0.10299   0.95465   1.000
    C15     C    0.57789   0.60303   0.95476   1.000
    C16     C    0.09935   0.00478   0.85817   1.000
    C17     C    0.09941   0.50483   0.85826   1.000
    C18     C    0.59937   0.00476   0.85820   1.000
    C19     C    0.59944   0.50480   0.85829   1.000
    C20     C    0.19883   0.28077   0.53428   1.000
    C21     C    0.19884   0.78075   0.53427   1.000
    C22     C    0.69883   0.28074   0.53422   1.000
    C23     C    0.69885   0.78072   0.53421   1.000
    C24     C    0.28103   0.49625   0.73598   1.000
    C25     C    0.28101   0.99623   0.73597   1.000
    C26     C    0.78103   0.49622   0.73593   1.000
    C27     C    0.78102   0.99620   0.73590   1.000
    C28     C    0.34653   0.48493   0.57036   1.000
    C29     C    0.34654   0.98493   0.57038   1.000
    C30     C    0.84655   0.48490   0.57033   1.000
    C31     C    0.84656   0.98490   0.57035   1.000
    C32     C    0.30814   0.37133   0.38340   1.000
    C33     C    0.30819   0.87134   0.38352   1.000
    C34     C    0.80817   0.37130   0.38345   1.000
    C35     C    0.80821   0.87131   0.38348   1.000
    C36     C    0.26239   0.28827   0.38651   1.000
    C37     C    0.26241   0.78828   0.38650   1.000
    C38     C    0.76242   0.28824   0.38648   1.000
    C39     C    0.76245   0.78825   0.38647   1.000
    C40     C    0.31913   0.25033   0.47907   1.000
    C41     C    0.31912   0.75029   0.47904   1.000
    C42     C    0.81917   0.25032   0.47908   1.000
    C43     C    0.81916   0.75028   0.47905   1.000
    C44     C    0.42519   0.26324   0.54267   1.000
    C45     C    0.42516   0.76317   0.54265   1.000
    C46     C    0.92523   0.26326   0.54272   1.000
    C47     C    0.92520   0.76319   0.54270   1.000
    C48     C    0.03497   0.46274   0.52673   1.000
    C49     C    0.03500   0.96271   0.52684   1.000
    C50     C    0.53496   0.46272   0.52669   1.000
    C51     C    0.53498   0.96269   0.52680   1.000
    C52     C    0.42917   0.44977   0.46279   1.000
    C53     C    0.42921   0.94978   0.46288   1.000
    C54     C    0.92919   0.44977   0.46279   1.000
    C55     C    0.92923   0.94976   0.46288   1.000
    C56     C    0.04604   0.34206   0.62350   1.000
    C57     C    0.04600   0.84197   0.62352   1.000
    C58     C    0.54601   0.34203   0.62345   1.000
    C59     C    0.54597   0.84194   0.62348   1.000
    C60     C    0.09117   0.42585   0.62270   1.000
    C61     C    0.09116   0.92578   0.62280   1.000
    C62     C    0.59115   0.42582   0.62265   1.000
    C63     C    0.59113   0.92575   0.62275   1.000
    C64     C    0.15767   0.43671   0.47991   1.000
    C65     C    0.15768   0.93669   0.48004   1.000
    C66     C    0.65767   0.43668   0.47989   1.000
    C67     C    0.65768   0.93666   0.48003   1.000
    C68     C    0.07783   0.22312   0.27041   1.000
    C69     C    0.07786   0.72312   0.27040   1.000
    C70     C    0.57783   0.22308   0.27000   1.000
    C71     C    0.57786   0.72309   0.27042   1.000
    C72     C    0.00961   0.23018   0.43322   1.000
    C73     C    0.00960   0.73013   0.43321   1.000
    C74     C    0.50957   0.23015   0.43316   1.000
    C75     C    0.50957   0.73010   0.43310   1.000
    C76     C    0.31214   0.08685   0.00000   1.000
    C77     C    0.31222   0.58691   0.00000   1.000
    C78     C    0.81219   0.08682   0.00000   1.000
    C79     C    0.81227   0.58688   0.00000   1.000
    C80     C    0.34067   0.17201   0.13306   1.000
    C81     C    0.34076   0.67208   0.13309   1.000
    C82     C    0.84074   0.17198   0.13297   1.000
    C83     C    0.84082   0.67205   0.13300   1.000
    C84     C    0.45216   0.22062   0.66867   1.000
    C85     C    0.45218   0.72053   0.66866   1.000
    C86     C    0.95216   0.22061   0.66869   1.000
    C87     C    0.95218   0.72051   0.66869   1.000
    C88     C    0.02399   0.10104   0.45023   1.000
    C89     C    0.02400   0.60101   0.45000   1.000
    C90     C    0.52398   0.10102   0.45020   1.000
    C91     C    0.52398   0.60099   0.45004   1.000
    C92     C    0.40535   0.00492   0.35596   1.000
    C93     C    0.40535   0.50489   0.35581   1.000
    C94     C    0.90538   0.00492   0.35599   1.000
    C95     C    0.90538   0.50489   0.35582   1.000
    C96     C    0.08571   0.28493   0.04053   1.000
    C97     C    0.08573   0.78491   0.04063   1.000
    C98     C    0.58572   0.28489   0.04054   1.000
    C99     C    0.58575   0.78487   0.04064   1.000
    C100    C    0.21387   0.50062   0.24153   1.000
    C101    C    0.21386   0.00000   0.24157   1.000
    C102    C    0.71392   0.50058   0.24150   1.000
    C103    C    0.71391   0.00000   0.24154   1.000
    C104    C    0.13762   0.48869   0.07510   1.000
    C105    C    0.13761   0.98864   0.07507   1.000
    C106    C    0.63766   0.48865   0.07507   1.000
    C107    C    0.63766   0.98860   0.07505   1.000
    C108    C    0.06578   0.37484   0.88820   1.000
    C109    C    0.06579   0.87476   0.88827   1.000
    C110    C    0.56580   0.37479   0.88828   1.000
    C111    C    0.56582   0.87471   0.88827   1.000
    C112    C    0.03099   0.29184   0.89100   1.000
    C113    C    0.03101   0.79178   0.89112   1.000
    C114    C    0.53100   0.29180   0.89109   1.000
    C115    C    0.53102   0.79173   0.89114   1.000
    C116    C    0.43536   0.25117   0.97907   1.000
    C117    C    0.43532   0.75106   0.97890   1.000
    C118    C    0.93536   0.25119   0.97904   1.000
    C119    C    0.93531   0.75108   0.97889   1.000
    C120    C    0.33965   0.26106   0.03840   1.000
    C121    C    0.33960   0.76094   0.03824   1.000
    C122    C    0.83964   0.26105   0.03841   1.000
    C123    C    0.83959   0.76094   0.03823   1.000
    C124    C    0.42406   0.46161   0.02644   1.000
    C125    C    0.42411   0.96157   0.02647   1.000
    C126    C    0.92402   0.46162   0.02640   1.000
    C127    C    0.92406   0.96158   0.02650   1.000
    C128    C    0.01942   0.45172   0.96682   1.000
    C129    C    0.01947   0.95168   0.96687   1.000
    C130    C    0.51946   0.45169   0.96600   1.000
    C131    C    0.51951   0.95165   0.96685   1.000
    C132    C    0.29396   0.33840   0.11867   1.000
    C133    C    0.29396   0.83835   0.11860   1.000
    C134    C    0.79393   0.33837   0.11866   1.000
    C135    C    0.79393   0.83832   0.11860   1.000
    C136    C    0.33002   0.42209   0.11802   1.000
    C137    C    0.33003   0.92204   0.11794   1.000
    C138    C    0.82997   0.42206   0.11802   1.000
    C139    C    0.82999   0.92202   0.11795   1.000
    C140    C    0.27553   0.43237   0.97377   1.000
    C141    C    0.27554   0.93232   0.97372   1.000
    C142    C    0.77552   0.43234   0.97372   1.000
    C143    C    0.77553   0.93230   0.97367   1.000
    C144    C    0.14694   0.21859   0.76469   1.000
    C145    C    0.14691   0.71855   0.76466   1.000
    C146    C    0.64693   0.21855   0.76466   1.000
    C147    C    0.64690   0.71852   0.76464   1.000
    C148    C    0.22175   0.22618   0.92830   1.000
    C149    C    0.22172   0.72613   0.92824   1.000
    C150    C    0.72171   0.22615   0.92830   1.000
    C151    C    0.72168   0.72610   0.92826   1.000
    C152    C    0.27712   0.09050   0.53722   1.000
    C153    C    0.27714   0.59043   0.53723   1.000
    C154    C    0.77712   0.09047   0.53723   1.000
    C155    C    0.77714   0.59039   0.53724   1.000
    C156    C    0.33349   0.17485   0.63990   1.000
    C157    C    0.33352   0.67475   0.63995   1.000
    C158    C    0.83349   0.17482   0.63990   1.000
    C159    C    0.83351   0.67472   0.63997   1.000
    C160    C    0.20526   0.49639   0.89786   1.000
    C161    C    0.20519   0.99632   0.89780   1.000
    C162    C    0.70529   0.49636   0.89782   1.000
    C163    C    0.70522   0.99629   0.89776   1.000
    C164    C    0.19544   0.05642   0.95712   1.000
    C165    C    0.19551   0.55647   0.95720   1.000
    C166    C    0.69548   0.05640   0.95710   1.000
    C167    C    0.69555   0.55645   0.95719   1.000
    C168    C    0.24487   0.11817   0.04548   1.000
    C169    C    0.24494   0.61823   0.04553   1.000
    C170    C    0.74491   0.11814   0.04545   1.000
    C171    C    0.74499   0.61820   0.04551   1.000
    C172    C    0.23191   0.17278   0.09771   1.000
    C173    C    0.23197   0.67284   0.09779   1.000
    C174    C    0.73196   0.17276   0.09771   1.000
    C175    C    0.73203   0.67281   0.09779   1.000
    C176    C    0.17256   0.16731   0.06555   1.000
    C177    C    0.17263   0.66737   0.06561   1.000
    C178    C    0.67261   0.16728   0.06560   1.000
    C179    C    0.67268   0.66734   0.06566   1.000
    C180    C    0.12378   0.10625   0.97878   1.000
    C181    C    0.12384   0.60629   0.97887   1.000
    C182    C    0.62382   0.10623   0.97882   1.000
    C183    C    0.62388   0.60627   0.97892   1.000
    C184    C    0.13596   0.05237   0.92622   1.000
    C185    C    0.13602   0.55241   0.92630   1.000
    C186    C    0.63599   0.05234   0.92625   1.000
    C187    C    0.63606   0.55239   0.92633   1.000
    C188    C    0.16033   0.22671   0.12155   1.000
    C189    C    0.16037   0.72674   0.12165   1.000
    C190    C    0.66038   0.22668   0.12159   1.000
    C191    C    0.66042   0.72671   0.12170   1.000
    C192    C    0.23018   0.33767   0.56656   1.000
    C193    C    0.23019   0.83766   0.56655   1.000
    C194    C    0.73019   0.33764   0.56651   1.000
    C195    C    0.73020   0.83763   0.56650   1.000
    C196    C    0.27367   0.45011   0.66855   1.000
    C197    C    0.27366   0.95009   0.66850   1.000
    C198    C    0.77367   0.45008   0.66850   1.000
    C199    C    0.77367   0.95006   0.66850   1.000
    C200    C    0.30669   0.44512   0.58813   1.000
    C201    C    0.30670   0.94511   0.58814   1.000
    C202    C    0.80670   0.44509   0.58809   1.000
    C203    C    0.80672   0.94508   0.58810   1.000
    C204    C    0.30217   0.34334   0.43248   1.000
    C205    C    0.30220   0.84334   0.43249   1.000
    C206    C    0.80220   0.34332   0.43245   1.000
    C207    C    0.80223   0.84332   0.43247   1.000
    C208    C    0.36671   0.34919   0.46655   1.000
    C209    C    0.36672   0.84918   0.46658   1.000
    C210    C    0.86673   0.34918   0.46655   1.000
    C211    C    0.86675   0.84916   0.46658   1.000
    C212    C    0.36644   0.29708   0.48942   1.000
    C213    C    0.36644   0.79704   0.48942   1.000
    C214    C    0.86648   0.29708   0.48944   1.000
    C215    C    0.86647   0.79704   0.48944   1.000
    C216    C    0.42613   0.30441   0.52565   1.000
    C217    C    0.42612   0.80436   0.52565   1.000
    C218    C    0.92617   0.30443   0.52569   1.000
    C219    C    0.92616   0.80438   0.52500   1.000
    C220    C    0.48744   0.36405   0.53970   1.000
    C221    C    0.48744   0.86400   0.53983   1.000
    C222    C    0.98747   0.36407   0.53980   1.000
    C223    C    0.98747   0.86402   0.53988   1.000
    C224    C    0.48768   0.41600   0.51649   1.000
    C225    C    0.48769   0.91597   0.51657   1.000
    C226    C    0.98771   0.41601   0.51653   1.000
    C227    C    0.98772   0.91598   0.51660   1.000
    C228    C    0.42803   0.40864   0.48016   1.000
    C229    C    0.42805   0.90863   0.48023   1.000
    C230    C    0.92805   0.40864   0.48017   1.000
    C231    C    0.92808   0.90863   0.48024   1.000
    C232    C    0.05213   0.37062   0.57532   1.000
    C233    C    0.05212   0.87056   0.57538   1.000
    C234    C    0.55210   0.37059   0.57527   1.000
    C235    C    0.55209   0.87053   0.57533   1.000
    C236    C    0.12669   0.37973   0.44510   1.000
    C237    C    0.12670   0.87971   0.44521   1.000
    C238    C    0.62668   0.37970   0.44509   1.000
    C239    C    0.62669   0.87968   0.44500   1.000
    C240    C    0.08432   0.26815   0.33920   1.000
    C241    C    0.08434   0.76814   0.33924   1.000
    C242    C    0.58432   0.26812   0.33918   1.000
    C243    C    0.58434   0.76811   0.33920   1.000
    C244    C    0.04992   0.27113   0.41804   1.000
    C245    C    0.04992   0.77110   0.41806   1.000
    C246    C    0.54990   0.27110   0.41799   1.000
    C247    C    0.54990   0.77107   0.41802   1.000
    C248    C    0.29275   0.49878   0.40040   1.000
    C249    C    0.29275   0.99881   0.40052   1.000
    C250    C    0.79278   0.49876   0.40046   1.000
    C251    C    0.79277   0.99879   0.40055   1.000
    C252    C    0.36191   0.05774   0.45882   1.000
    C253    C    0.36192   0.55768   0.45874   1.000
    C254    C    0.86193   0.05773   0.45880   1.000
    C255    C    0.86194   0.55767   0.45870   1.000
    C256    C    0.37447   0.11958   0.54867   1.000
    C257    C    0.37448   0.61951   0.54864   1.000
    C258    C    0.87448   0.11957   0.54870   1.000
    C259    C    0.87449   0.61948   0.54867   1.000
    C260    C    0.44139   0.17300   0.59973   1.000
    C261    C    0.44140   0.67291   0.59970   1.000
    C262    C    0.94139   0.17299   0.59975   1.000
    C263    C    0.94140   0.67291   0.59972   1.000
    C264    C    0.49443   0.16639   0.56481   1.000
    C265    C    0.49444   0.66632   0.56470   1.000
    C266    C    0.99444   0.16638   0.56486   1.000
    C267    C    0.99445   0.66631   0.56478   1.000
    C268    C    0.48192   0.10524   0.47653   1.000
    C269    C    0.48193   0.60519   0.47641   1.000
    C270    C    0.98194   0.10525   0.47655   1.000
    C271    C    0.98195   0.60520   0.47643   1.000
    C272    C    0.41648   0.05250   0.42516   1.000
    C273    C    0.41649   0.55246   0.42504   1.000
    C274    C    0.91651   0.05251   0.42519   1.000
    C275    C    0.91652   0.55246   0.42506   1.000
    C276    C    0.06531   0.22464   0.61967   1.000
    C277    C    0.06532   0.72458   0.61961   1.000
    C278    C    0.56531   0.22463   0.61966   1.000
    C279    C    0.56532   0.72457   0.61959   1.000
    C280    C    0.10996   0.34182   0.07240   1.000
    C281    C    0.10998   0.84180   0.07240   1.000
    C282    C    0.60998   0.34177   0.07241   1.000
    C283    C    0.61000   0.84175   0.07248   1.000
    C284    C    0.17616   0.45435   0.17417   1.000
    C285    C    0.17616   0.95434   0.17420   1.000
    C286    C    0.67620   0.45431   0.17410   1.000
    C287    C    0.67620   0.95430   0.17419   1.000
    C288    C    0.13842   0.44906   0.09336   1.000
    C289    C    0.13841   0.94902   0.09337   1.000
    C290    C    0.63845   0.44902   0.09334   1.000
    C291    C    0.63845   0.94898   0.09335   1.000
    C292    C    0.04410   0.34660   0.93690   1.000
    C293    C    0.04412   0.84653   0.93694   1.000
    C294    C    0.54412   0.34656   0.93694   1.000
    C295    C    0.54414   0.84649   0.93695   1.000
    C296    C    0.48418   0.35079   0.96888   1.000
    C297    C    0.48419   0.85071   0.96884   1.000
    C298    C    0.98416   0.35081   0.96887   1.000
    C299    C    0.98417   0.85074   0.96884   1.000
    C300    C    0.43308   0.29752   0.98940   1.000
    C301    C    0.43306   0.79742   0.98932   1.000
    C302    C    0.93307   0.29753   0.98942   1.000
    C303    C    0.93305   0.79744   0.98931   1.000
    C304    C    0.37925   0.30311   0.02316   1.000
    C305    C    0.37922   0.80302   0.02302   1.000
    C306    C    0.87923   0.30311   0.02314   1.000
    C307    C    0.87920   0.80302   0.02301   1.000
    C308    C    0.37538   0.36221   0.03730   1.000
    C309    C    0.37538   0.86214   0.03722   1.000
    C310    C    0.87536   0.36221   0.03730   1.000
    C311    C    0.87535   0.86214   0.03723   1.000
    C312    C    0.42634   0.41530   0.01625   1.000
    C313    C    0.42636   0.91524   0.01620   1.000
    C314    C    0.92630   0.41531   0.01627   1.000
    C315    C    0.92633   0.91526   0.01625   1.000
    C316    C    0.48011   0.40969   0.98245   1.000
    C317    C    0.48014   0.90964   0.98246   1.000
    C318    C    0.98009   0.40971   0.98246   1.000
    C319    C    0.98011   0.90966   0.98247   1.000
    C320    C    0.31600   0.36716   0.07075   1.000
    C321    C    0.31600   0.86710   0.07060   1.000
    C322    C    0.81597   0.36714   0.07075   1.000
    C323    C    0.81597   0.86708   0.07068   1.000
    C324    C    0.25086   0.37540   0.93928   1.000
    C325    C    0.25086   0.87535   0.93922   1.000
    C326    C    0.75084   0.37536   0.93924   1.000
    C327    C    0.75085   0.87533   0.93919   1.000
    C328    C    0.18445   0.26373   0.83340   1.000
    C329    C    0.18443   0.76368   0.83339   1.000
    C330    C    0.68444   0.26369   0.83340   1.000
    C331    C    0.68441   0.76366   0.83337   1.000
    C332    C    0.22159   0.26697   0.91265   1.000
    C333    C    0.22157   0.76692   0.91260   1.000
    C334    C    0.72156   0.26694   0.91265   1.000
    C335    C    0.72154   0.76690   0.91260   1.000
    C336    C    0.22601   0.38276   0.65430   1.000
    C337    C    0.22601   0.88274   0.65434   1.000
    C338    C    0.72601   0.38273   0.65430   1.000
    C339    C    0.72602   0.88271   0.65429   1.000
    C340    C    0.27856   0.37378   0.52411   1.000
    C341    C    0.27857   0.87377   0.52412   1.000
    C342    C    0.77857   0.37375   0.52407   1.000
    C343    C    0.77859   0.87374   0.52408   1.000
    C344    C    0.13220   0.33626   0.35688   1.000
    C345    C    0.13222   0.83626   0.35697   1.000
    C346    C    0.63221   0.33623   0.35680   1.000
    C347    C    0.63223   0.83623   0.35697   1.000
    C348    C    0.07735   0.34199   0.48450   1.000
    C349    C    0.07735   0.84194   0.48463   1.000
    C350    C    0.57733   0.34196   0.48452   1.000
    C351    C    0.57733   0.84192   0.48459   1.000
    C352    C    0.30265   0.12391   0.08148   1.000
    C353    C    0.30273   0.62398   0.08152   1.000
    C354    C    0.80271   0.12388   0.08140   1.000
    C355    C    0.80279   0.62395   0.08145   1.000
    C356    C    0.15802   0.38712   0.16031   1.000
    C357    C    0.15803   0.88711   0.16039   1.000
    C358    C    0.65805   0.38707   0.16030   1.000
    C359    C    0.65806   0.88707   0.16039   1.000
    C360    C    0.09697   0.37764   0.02949   1.000
    C361    C    0.09698   0.87760   0.02952   1.000
    C362    C    0.59699   0.37760   0.02949   1.000
    C363    C    0.59700   0.87755   0.02952   1.000
    C364    C    0.20310   0.33174   0.85086   1.000
    C365    C    0.20309   0.83170   0.85080   1.000
    C366    C    0.70309   0.33171   0.85082   1.000
    C367    C    0.70308   0.83167   0.85070   1.000
    C368    C    0.26322   0.33790   0.97913   1.000
    C369    C    0.26322   0.83786   0.97907   1.000
    C370    C    0.76319   0.33788   0.97913   1.000
    C371    C    0.76319   0.83783   0.97907   1.000
    C372    C    0.32328   0.12649   0.58725   1.000
    C373    C    0.32329   0.62639   0.58728   1.000
    C374    C    0.82328   0.12646   0.58727   1.000
    C375    C    0.82330   0.62636   0.58730   1.000
    C376    C    0.26091   0.00170   0.91509   1.000
    C377    C    0.26097   0.50175   0.91516   1.000
    C378    C    0.76094   0.00167   0.91499   1.000
    C379    C    0.76101   0.50172   0.91507   1.000
    C380    C    0.15358   0.43922   0.82863   1.000
    C381    C    0.15352   0.93915   0.82856   1.000
    C382    C    0.65360   0.43919   0.82861   1.000
    C383    C    0.65353   0.93912   0.82854   1.000
    C384    C    0.21138   0.28495   0.19107   1.000
    C385    C    0.21142   0.78499   0.19110   1.000
    C386    C    0.71142   0.28492   0.19112   1.000
    C387    C    0.71146   0.78496   0.19121   1.000
    C388    C    0.10429   0.21835   0.09993   1.000
    C389    C    0.10433   0.71837   0.10001   1.000
    C390    C    0.60434   0.21832   0.09997   1.000
    C391    C    0.60438   0.71834   0.10006   1.000
    C392    C    0.24306   0.00536   0.42001   1.000
    C393    C    0.24308   0.50533   0.41994   1.000
    C394    C    0.74308   0.00533   0.42000   1.000
    C395    C    0.74309   0.50530   0.41995   1.000
    C396    C    0.28712   0.44116   0.32991   1.000
    C397    C    0.28714   0.94119   0.33002   1.000
    C398    C    0.78715   0.44114   0.32993   1.000
    C399    C    0.78716   0.94118   0.33005   1.000
    C400    C    0.07258   0.28334   0.69021   1.000
    C401    C    0.07258   0.78326   0.69017   1.000
    C402    C    0.57259   0.28333   0.69017   1.000
    C403    C    0.57258   0.78326   0.69012   1.000
    C404    C    0.11243   0.21524   0.59609   1.000
    C405    C    0.11245   0.71520   0.59602   1.000
    C406    C    0.61243   0.21522   0.59607   1.000
    C407    C    0.61245   0.71518   0.59601   1.000
    O408    O    0.30739   0.10538   0.04074   1.000
    O409    O    0.30747   0.60545   0.04076   1.000
    O410    O    0.80745   0.10535   0.04070   1.000
    O411    O    0.80753   0.60542   0.04072   1.000
    O412    O    0.42523   0.93841   0.02133   1.000
    O413    O    0.40087   0.88869   0.02671   1.000
    O414    O    0.45325   0.91244   0.99933   1.000
    O415    O    0.92520   0.93842   0.02137   1.000
    O416    O    0.90084   0.88870   0.02674   1.000
    O417    O    0.95322   0.91246   0.99936   1.000
    O418    O    0.42520   0.43846   0.02134   1.000
    O419    O    0.40086   0.38875   0.02677   1.000
    O420    O    0.45322   0.41250   0.99935   1.000
    O421    O    0.92516   0.43846   0.02133   1.000
    O422    O    0.90083   0.38876   0.02678   1.000
    O423    O    0.95320   0.41251   0.99936   1.000
    O424    O    0.87728   0.83258   0.03012   1.000
    O425    O    0.85940   0.78198   0.03062   1.000
    O426    O    0.90612   0.80023   0.00616   1.000
    O427    O    0.37730   0.83258   0.03012   1.000
    O428    O    0.35941   0.78198   0.03063   1.000
    O429    O    0.40614   0.80022   0.00617   1.000
    O430    O    0.87729   0.33266   0.03022   1.000
    O431    O    0.85944   0.28208   0.03077   1.000
    O432    O    0.90615   0.30032   0.00628   1.000
    O433    O    0.37732   0.33266   0.03023   1.000
    O434    O    0.35945   0.28208   0.03078   1.000
    O435    O    0.40617   0.30031   0.00628   1.000
    O436    O    0.60349   0.35968   0.05095   1.000
    O437    O    0.61772   0.41331   0.06141   1.000
    O438    O    0.57056   0.36208   0.98321   1.000
    O439    O    0.10347   0.35973   0.05094   1.000
    O440    O    0.11769   0.41335   0.06142   1.000
    O441    O    0.07054   0.36212   0.98319   1.000
    O442    O    0.60350   0.85965   0.05100   1.000
    O443    O    0.61773   0.91327   0.06143   1.000
    O444    O    0.57057   0.86202   0.98323   1.000
    O445    O    0.10348   0.85970   0.05096   1.000
    O446    O    0.11770   0.91331   0.06144   1.000
    O447    O    0.07055   0.86207   0.98323   1.000
    O448    O    0.34569   0.86462   0.05391   1.000
    O449    O    0.84566   0.86461   0.05395   1.000
    O450    O    0.84566   0.36467   0.05402   1.000
    O451    O    0.34569   0.36468   0.05402   1.000
    O452    O    0.09783   0.31337   0.05646   1.000
    O453    O    0.59785   0.31333   0.05647   1.000
    O454    O    0.09785   0.81336   0.05651   1.000
    O455    O    0.59787   0.81331   0.05656   1.000
    O456    O    0.77381   0.12101   0.06342   1.000
    O457    O    0.73844   0.14545   0.07158   1.000
    O458    O    0.72020   0.08727   0.00127   1.000
    O459    O    0.27376   0.12104   0.06348   1.000
    O460    O    0.23839   0.14547   0.07159   1.000
    O461    O    0.22015   0.08729   0.00130   1.000
    O462    O    0.77389   0.62108   0.06348   1.000
    O463    O    0.73851   0.64551   0.07165   1.000
    O464    O    0.72027   0.58733   0.00135   1.000
    O465    O    0.27384   0.62111   0.06352   1.000
    O466    O    0.23846   0.64553   0.07166   1.000
    O467    O    0.22023   0.58735   0.00136   1.000
    O468    O    0.20223   0.17005   0.08163   1.000
    O469    O    0.16644   0.19701   0.09355   1.000
    O470    O    0.14817   0.13678   0.02216   1.000
    O471    O    0.70228   0.17002   0.08165   1.000
    O472    O    0.66649   0.19698   0.09359   1.000
    O473    O    0.64821   0.13676   0.02221   1.000
    O474    O    0.20230   0.67010   0.08170   1.000
    O475    O    0.16650   0.69705   0.09363   1.000
    O476    O    0.14824   0.63683   0.02224   1.000
    O477    O    0.70235   0.67008   0.08172   1.000
    O478    O    0.66655   0.69703   0.09368   1.000
    O479    O    0.64828   0.63680   0.02229   1.000
    O480    O    0.32302   0.89457   0.09427   1.000
    O481    O    0.30498   0.85272   0.09460   1.000
    O482    O    0.28961   0.85248   0.02483   1.000
    O483    O    0.82298   0.89455   0.09431   1.000
    O484    O    0.80495   0.85270   0.09464   1.000
    O485    O    0.78958   0.85246   0.02487   1.000
    O486    O    0.82297   0.39460   0.09438   1.000
    O487    O    0.80495   0.35275   0.09470   1.000
    O488    O    0.78958   0.35251   0.02494   1.000
    O489    O    0.32301   0.39462   0.09438   1.000
    O490    O    0.30498   0.35278   0.09471   1.000
    O491    O    0.28961   0.35253   0.02494   1.000
    O492    O    0.13399   0.36447   0.11635   1.000
    O493    O    0.13400   0.86446   0.11639   1.000
    O494    O    0.63402   0.36442   0.11635   1.000
    O495    O    0.63403   0.86441   0.11643   1.000
    O496    O    0.63806   0.96879   0.08420   1.000
    O497    O    0.13801   0.96883   0.08422   1.000
    O498    O    0.63806   0.46883   0.08420   1.000
    O499    O    0.13802   0.46888   0.08423   1.000
    O500    O    0.82172   0.14793   0.10718   1.000
    O501    O    0.82181   0.64800   0.10722   1.000
    O502    O    0.32166   0.14796   0.10727   1.000
    O503    O    0.32174   0.64803   0.10730   1.000
    O504    O    0.65733   0.45166   0.13372   1.000
    O505    O    0.65733   0.95164   0.13377   1.000
    O506    O    0.15729   0.45171   0.13376   1.000
    O507    O    0.15729   0.95168   0.13378   1.000
    O508    O    0.25040   0.19658   0.13161   1.000
    O509    O    0.75046   0.19655   0.13160   1.000
    O510    O    0.25047   0.69663   0.13168   1.000
    O511    O    0.75053   0.69661   0.13168   1.000
    O512    O    0.13231   0.22253   0.11074   1.000
    O513    O    0.63236   0.22250   0.11078   1.000
    O514    O    0.13235   0.72255   0.11083   1.000
    O515    O    0.63240   0.72253   0.11088   1.000
    O516    O    0.18585   0.25583   0.15631   1.000
    O517    O    0.68590   0.25580   0.15635   1.000
    O518    O    0.18590   0.75586   0.15637   1.000
    O519    O    0.68594   0.75584   0.15645   1.000
    O520    O    0.66713   0.42069   0.16720   1.000
    O521    O    0.67549   0.37490   0.21009   1.000
    O522    O    0.16709   0.42073   0.16724   1.000
    O523    O    0.17546   0.37493   0.21009   1.000
    O524    O    0.66713   0.92069   0.16729   1.000
    O525    O    0.67551   0.87491   0.21020   1.000
    O526    O    0.16709   0.92073   0.16729   1.000
    O527    O    0.17548   0.87494   0.21019   1.000
    O528    O    0.69506   0.47744   0.20780   1.000
    O529    O    0.19502   0.47749   0.20785   1.000
    O530    O    0.69505   0.97715   0.20786   1.000
    O531    O    0.19501   0.97717   0.20788   1.000
    O532    O    0.20214   0.32385   0.22547   1.000
    O533    O    0.20217   0.82388   0.22554   1.000
    O534    O    0.70217   0.32382   0.22550   1.000
    O535    O    0.70221   0.82386   0.22561   1.000
    O536    O    0.24001   0.40195   0.29489   1.000
    O537    O    0.16255   0.34950   0.30837   1.000
    O538    O    0.74004   0.40193   0.29491   1.000
    O539    O    0.66256   0.34947   0.30834   1.000
    O540    O    0.24003   0.90198   0.29500   1.000
    O541    O    0.16257   0.84952   0.30848   1.000
    O542    O    0.74006   0.90196   0.29503   1.000
    O543    O    0.66259   0.84949   0.30849   1.000
    O544    O    0.58108   0.24560   0.30459   1.000
    O545    O    0.08110   0.74563   0.30482   1.000
    O546    O    0.08108   0.24563   0.30480   1.000
    O547    O    0.58110   0.74560   0.30481   1.000
    O548    O    0.28994   0.46997   0.36515   1.000
    O549    O    0.78996   0.46995   0.36519   1.000
    O550    O    0.28994   0.97001   0.36527   1.000
    O551    O    0.78997   0.96998   0.36530   1.000
    O552    O    0.60826   0.30217   0.34799   1.000
    O553    O    0.56711   0.26961   0.37858   1.000
    O554    O    0.60828   0.80217   0.34808   1.000
    O555    O    0.56712   0.76959   0.37861   1.000
    O556    O    0.10826   0.30221   0.34804   1.000
    O557    O    0.06712   0.26964   0.37862   1.000
    O558    O    0.10828   0.80220   0.34810   1.000
    O559    O    0.06713   0.76962   0.37865   1.000
    O560    O    0.41092   0.52868   0.39042   1.000
    O561    O    0.91095   0.52868   0.39044   1.000
    O562    O    0.41091   0.02871   0.39056   1.000
    O563    O    0.91094   0.02871   0.39059   1.000
    O564    O    0.62944   0.35796   0.40094   1.000
    O565    O    0.12944   0.35800   0.40099   1.000
    O566    O    0.12946   0.85798   0.40109   1.000
    O567    O    0.62946   0.85795   0.40098   1.000
    O568    O    0.30516   0.35734   0.40794   1.000
    O569    O    0.80518   0.35731   0.40795   1.000
    O570    O    0.80522   0.85731   0.40797   1.000
    O571    O    0.30519   0.85734   0.40800   1.000
    O572    O    0.78234   0.81578   0.40947   1.000
    O573    O    0.78231   0.31578   0.40946   1.000
    O574    O    0.28231   0.81581   0.40949   1.000
    O575    O    0.28228   0.31581   0.40949   1.000
    O576    O    0.26792   0.50206   0.41017   1.000
    O577    O    0.32734   0.52823   0.42957   1.000
    O578    O    0.76793   0.50203   0.41020   1.000
    O579    O    0.82736   0.52821   0.42958   1.000
    O580    O    0.26791   0.00209   0.41026   1.000
    O581    O    0.32733   0.02828   0.42967   1.000
    O582    O    0.76793   0.00206   0.41027   1.000
    O583    O    0.82735   0.02826   0.42967   1.000
    O584    O    0.52973   0.25062   0.42557   1.000
    O585    O    0.56361   0.30653   0.45125   1.000
    O586    O    0.52973   0.75058   0.42556   1.000
    O587    O    0.56361   0.80649   0.45130   1.000
    O588    O    0.02976   0.25065   0.42563   1.000
    O589    O    0.06363   0.30656   0.45127   1.000
    O590    O    0.02976   0.75061   0.42563   1.000
    O591    O    0.06364   0.80652   0.45134   1.000
    O592    O    0.38921   0.55507   0.44189   1.000
    O593    O    0.44921   0.57883   0.45072   1.000
    O594    O    0.88923   0.55507   0.44188   1.000
    O595    O    0.94923   0.57883   0.45074   1.000
    O596    O    0.38920   0.05512   0.44199   1.000
    O597    O    0.44920   0.07887   0.45084   1.000
    O598    O    0.88922   0.05512   0.44199   1.000
    O599    O    0.94922   0.07888   0.45087   1.000
    O600    O    0.83447   0.34625   0.44950   1.000
    O601    O    0.79038   0.35853   0.47826   1.000
    O602    O    0.83449   0.84624   0.44952   1.000
    O603    O    0.79041   0.85853   0.47827   1.000
    O604    O    0.33444   0.34627   0.44951   1.000
    O605    O    0.29036   0.35856   0.47829   1.000
    O606    O    0.33446   0.84626   0.44953   1.000
    O607    O    0.29039   0.85856   0.47830   1.000
    O608    O    0.64218   0.90817   0.46251   1.000
    O609    O    0.60201   0.86080   0.46479   1.000
    O610    O    0.64217   0.40819   0.46249   1.000
    O611    O    0.60200   0.36083   0.46480   1.000
    O612    O    0.14218   0.40822   0.46250   1.000
    O613    O    0.10202   0.36086   0.46480   1.000
    O614    O    0.14219   0.90820   0.46262   1.000
    O615    O    0.10202   0.86083   0.46492   1.000
    O616    O    0.00297   0.60311   0.46321   1.000
    O617    O    0.50296   0.60309   0.46322   1.000
    O618    O    0.50295   0.10313   0.46336   1.000
    O619    O    0.00297   0.10315   0.46339   1.000
    O620    O    0.86821   0.58858   0.50368   1.000
    O621    O    0.36820   0.58860   0.50369   1.000
    O622    O    0.86821   0.08865   0.50375   1.000
    O623    O    0.36819   0.08866   0.50374   1.000
    O624    O    0.92862   0.42920   0.47148   1.000
    O625    O    0.42860   0.42921   0.47147   1.000
    O626    O    0.92866   0.92920   0.47156   1.000
    O627    O    0.42863   0.92920   0.47155   1.000
    O628    O    0.89739   0.37891   0.47336   1.000
    O629    O    0.86660   0.32313   0.47799   1.000
    O630    O    0.39737   0.37892   0.47335   1.000
    O631    O    0.36657   0.32313   0.47798   1.000
    O632    O    0.39739   0.87890   0.47340   1.000
    O633    O    0.36658   0.82311   0.47800   1.000
    O634    O    0.89742   0.87890   0.47341   1.000
    O635    O    0.86661   0.82310   0.47801   1.000
    O636    O    0.48818   0.63576   0.52055   1.000
    O637    O    0.98820   0.63576   0.52060   1.000
    O638    O    0.48817   0.13581   0.52067   1.000
    O639    O    0.98819   0.13582   0.52070   1.000
    O640    O    0.34278   0.77366   0.48423   1.000
    O641    O    0.84281   0.77366   0.48424   1.000
    O642    O    0.34279   0.27370   0.48424   1.000
    O643    O    0.84282   0.27370   0.48426   1.000
    O644    O    0.45785   0.41232   0.49832   1.000
    O645    O    0.95788   0.41233   0.49835   1.000
    O646    O    0.45787   0.91230   0.49840   1.000
    O647    O    0.95790   0.91230   0.49842   1.000
    O648    O    0.06474   0.35630   0.52991   1.000
    O649    O    0.56472   0.35627   0.52989   1.000
    O650    O    0.56471   0.85623   0.52996   1.000
    O651    O    0.06473   0.85625   0.53000   1.000
    O652    O    0.39628   0.80070   0.50753   1.000
    O653    O    0.39629   0.30075   0.50753   1.000
    O654    O    0.89632   0.30075   0.50756   1.000
    O655    O    0.89632   0.80071   0.50722   1.000
    O656    O    0.51132   0.43936   0.52159   1.000
    O657    O    0.48756   0.39002   0.52809   1.000
    O658    O    0.01134   0.43938   0.52163   1.000
    O659    O    0.98759   0.39004   0.52816   1.000
    O660    O    0.51134   0.93933   0.52168   1.000
    O661    O    0.48756   0.88999   0.52820   1.000
    O662    O    0.01136   0.93934   0.52172   1.000
    O663    O    0.98760   0.89000   0.52824   1.000
    O664    O    0.75438   0.35569   0.54529   1.000
    O665    O    0.79264   0.40942   0.55608   1.000
    O666    O    0.75440   0.85568   0.54529   1.000
    O667    O    0.79265   0.90941   0.55609   1.000
    O668    O    0.25437   0.35573   0.54533   1.000
    O669    O    0.29262   0.40945   0.55612   1.000
    O670    O    0.25438   0.85571   0.54533   1.000
    O671    O    0.29264   0.90944   0.55613   1.000
    O672    O    0.95681   0.83420   0.53244   1.000
    O673    O    0.92568   0.78378   0.53385   1.000
    O674    O    0.45679   0.33423   0.53267   1.000
    O675    O    0.42566   0.28383   0.53416   1.000
    O676    O    0.45678   0.83418   0.53274   1.000
    O677    O    0.42564   0.78377   0.53415   1.000
    O678    O    0.95682   0.33425   0.53274   1.000
    O679    O    0.92570   0.28384   0.53420   1.000
    O680    O    0.71453   0.80917   0.55035   1.000
    O681    O    0.71451   0.30919   0.55036   1.000
    O682    O    0.21452   0.80920   0.55041   1.000
    O683    O    0.21450   0.30922   0.55042   1.000
    O684    O    0.30020   0.10849   0.56223   1.000
    O685    O    0.30021   0.60841   0.56225   1.000
    O686    O    0.80020   0.10847   0.56225   1.000
    O687    O    0.80022   0.60838   0.56227   1.000
    O688    O    0.51977   0.36732   0.55748   1.000
    O689    O    0.01980   0.36735   0.55756   1.000
    O690    O    0.51976   0.86727   0.55758   1.000
    O691    O    0.01979   0.86729   0.55763   1.000
    O692    O    0.34889   0.62295   0.56796   1.000
    O693    O    0.40794   0.64621   0.57417   1.000
    O694    O    0.34887   0.12304   0.56796   1.000
    O695    O    0.40793   0.14629   0.57420   1.000
    O696    O    0.84889   0.62292   0.56798   1.000
    O697    O    0.90795   0.64620   0.57419   1.000
    O698    O    0.84888   0.12302   0.56798   1.000
    O699    O    0.90794   0.14628   0.57422   1.000
    O700    O    0.46792   0.66962   0.58220   1.000
    O701    O    0.52988   0.69545   0.59214   1.000
    O702    O    0.96793   0.66961   0.58225   1.000
    O703    O    0.02988   0.69545   0.59219   1.000
    O704    O    0.46791   0.16969   0.58227   1.000
    O705    O    0.52987   0.19551   0.59223   1.000
    O706    O    0.96792   0.16969   0.58230   1.000
    O707    O    0.02988   0.19551   0.59226   1.000
    O708    O    0.72811   0.86017   0.61039   1.000
    O709    O    0.72810   0.36018   0.61040   1.000
    O710    O    0.22810   0.86020   0.61044   1.000
    O711    O    0.22810   0.36022   0.61043   1.000
    O712    O    0.82663   0.46500   0.57921   1.000
    O713    O    0.82664   0.96499   0.57922   1.000
    O714    O    0.32661   0.46503   0.57924   1.000
    O715    O    0.32662   0.96502   0.57926   1.000
    O716    O    0.57163   0.39821   0.59896   1.000
    O717    O    0.54906   0.35631   0.59936   1.000
    O718    O    0.07165   0.39823   0.59901   1.000
    O719    O    0.04908   0.35634   0.59941   1.000
    O720    O    0.57161   0.89814   0.59904   1.000
    O721    O    0.54903   0.85624   0.59940   1.000
    O722    O    0.07164   0.89817   0.59909   1.000
    O723    O    0.04906   0.85626   0.59945   1.000
    O724    O    0.32838   0.15067   0.61357   1.000
    O725    O    0.82839   0.15064   0.61358   1.000
    O726    O    0.32841   0.65057   0.61361   1.000
    O727    O    0.82840   0.65054   0.61363   1.000
    O728    O    0.79019   0.44758   0.62829   1.000
    O729    O    0.79020   0.94757   0.62830   1.000
    O730    O    0.29018   0.44761   0.62834   1.000
    O731    O    0.29018   0.94760   0.62832   1.000
    O732    O    0.58888   0.71988   0.60780   1.000
    O733    O    0.08888   0.71989   0.60781   1.000
    O734    O    0.58887   0.21993   0.60786   1.000
    O735    O    0.08887   0.21994   0.60788   1.000
    O736    O    0.44679   0.69672   0.63418   1.000
    O737    O    0.94679   0.69671   0.63420   1.000
    O738    O    0.44677   0.19681   0.63420   1.000
    O739    O    0.94678   0.19680   0.63422   1.000
    O740    O    0.56895   0.75392   0.65485   1.000
    O741    O    0.06895   0.75392   0.65489   1.000
    O742    O    0.56895   0.25398   0.65491   1.000
    O743    O    0.06895   0.25399   0.65494   1.000
    O744    O    0.74985   0.91638   0.66139   1.000
    O745    O    0.69709   0.87071   0.70464   1.000
    O746    O    0.24984   0.41644   0.66142   1.000
    O747    O    0.19709   0.37078   0.70479   1.000
    O748    O    0.74984   0.41640   0.66140   1.000
    O749    O    0.69710   0.37075   0.70476   1.000
    O750    O    0.24984   0.91641   0.66142   1.000
    O751    O    0.19708   0.87075   0.70479   1.000
    O752    O    0.77735   0.97313   0.70220   1.000
    O753    O    0.77735   0.47315   0.70221   1.000
    O754    O    0.27734   0.97316   0.70223   1.000
    O755    O    0.27735   0.47318   0.70226   1.000
    O756    O    0.62037   0.82099   0.72256   1.000
    O757    O    0.12037   0.82101   0.72271   1.000
    O758    O    0.62038   0.32105   0.72270   1.000
    O759    O    0.12038   0.32107   0.72275   1.000
    O760    O    0.66085   0.89892   0.79177   1.000
    O761    O    0.68562   0.84520   0.80285   1.000
    O762    O    0.66089   0.39898   0.79192   1.000
    O763    O    0.68563   0.34523   0.80302   1.000
    O764    O    0.16084   0.89895   0.79190   1.000
    O765    O    0.18562   0.84523   0.80302   1.000
    O766    O    0.16088   0.39901   0.79196   1.000
    O767    O    0.18564   0.34527   0.80307   1.000
    O768    O    0.66566   0.74109   0.79900   1.000
    O769    O    0.16567   0.74112   0.79902   1.000
    O770    O    0.66568   0.24112   0.79903   1.000
    O771    O    0.16570   0.24116   0.79904   1.000
    O772    O    0.67938   0.96771   0.86315   1.000
    O773    O    0.17935   0.96773   0.86318   1.000
    O774    O    0.67944   0.46778   0.86321   1.000
    O775    O    0.17942   0.46780   0.86324   1.000
    O776    O    0.69375   0.79766   0.84203   1.000
    O777    O    0.70298   0.76528   0.87298   1.000
    O778    O    0.19376   0.79769   0.84209   1.000
    O779    O    0.20300   0.76530   0.87299   1.000
    O780    O    0.69376   0.29770   0.84211   1.000
    O781    O    0.70300   0.26532   0.87302   1.000
    O782    O    0.19378   0.29773   0.84213   1.000
    O783    O    0.20302   0.26535   0.87302   1.000
    O784    O    0.72696   0.85350   0.89494   1.000
    O785    O    0.22697   0.85353   0.89501   1.000
    O786    O    0.72697   0.35354   0.89503   1.000
    O787    O    0.22698   0.35357   0.89507   1.000
    O788    O    0.11765   0.02857   0.89219   1.000
    O789    O    0.61768   0.02855   0.89222   1.000
    O790    O    0.11772   0.52862   0.89228   1.000
    O791    O    0.61775   0.52860   0.89231   1.000
    O792    O    0.05494   0.36072   0.91255   1.000
    O793    O    0.05496   0.86065   0.91260   1.000
    O794    O    0.55498   0.86060   0.91261   1.000
    O795    O    0.55496   0.36067   0.91261   1.000
    O796    O    0.03755   0.31922   0.91395   1.000
    O797    O    0.53756   0.31918   0.91401   1.000
    O798    O    0.03756   0.81915   0.91403   1.000
    O799    O    0.53758   0.81911   0.91404   1.000
    O800    O    0.73308   0.99898   0.90637   1.000
    O801    O    0.70035   0.02635   0.92743   1.000
    O802    O    0.23305   0.99901   0.90644   1.000
    O803    O    0.20032   0.02637   0.92746   1.000
    O804    O    0.73315   0.49904   0.90644   1.000
    O805    O    0.70042   0.52641   0.92750   1.000
    O806    O    0.23312   0.49907   0.90651   1.000
    O807    O    0.20039   0.52643   0.92753   1.000
    O808    O    0.22165   0.74652   0.92042   1.000
    O809    O    0.24240   0.80239   0.94583   1.000
    O810    O    0.72161   0.74650   0.92043   1.000
    O811    O    0.74237   0.80237   0.94583   1.000
    O812    O    0.22167   0.24658   0.92047   1.000
    O813    O    0.24241   0.30244   0.94589   1.000
    O814    O    0.72163   0.24655   0.92047   1.000
    O815    O    0.74238   0.30241   0.94589   1.000
    O816    O    0.16570   0.05439   0.94167   1.000
    O817    O    0.12987   0.07931   0.95250   1.000
    O818    O    0.66573   0.05437   0.94167   1.000
    O819    O    0.62991   0.07929   0.95253   1.000
    O820    O    0.16577   0.55444   0.94175   1.000
    O821    O    0.12993   0.57935   0.95258   1.000
    O822    O    0.66580   0.55442   0.94176   1.000
    O823    O    0.62997   0.57933   0.95262   1.000
    O824    O    0.01413   0.34870   0.95288   1.000
    O825    O    0.01414   0.84864   0.95289   1.000
    O826    O    0.51415   0.34867   0.95291   1.000
    O827    O    0.51416   0.84860   0.95289   1.000
    O828    O    0.76319   0.90381   0.95643   1.000
    O829    O    0.75702   0.85658   0.95913   1.000
    O830    O    0.26320   0.90384   0.95647   1.000
    O831    O    0.25704   0.85660   0.95914   1.000
    O832    O    0.76318   0.40385   0.95648   1.000
    O833    O    0.75702   0.35662   0.95918   1.000
    O834    O    0.26320   0.40388   0.95652   1.000
    O835    O    0.25704   0.35665   0.95920   1.000
    O836    O    0.10079   0.10463   0.96667   1.000
    O837    O    0.60083   0.10461   0.96673   1.000
    O838    O    0.10084   0.60467   0.96677   1.000
    O839    O    0.60088   0.60465   0.96684   1.000
    O840    O    0.49979   0.43069   0.97422   1.000
    O841    O    0.99976   0.43072   0.97464   1.000
    O842    O    0.49983   0.93065   0.97465   1.000
    O843    O    0.99979   0.93067   0.97467   1.000
    O844    O    0.98214   0.88020   0.97565   1.000
    O845    O    0.95861   0.82409   0.97907   1.000
    O846    O    0.48217   0.88018   0.97565   1.000
    O847    O    0.45862   0.82407   0.97908   1.000
    O848    O    0.98213   0.38026   0.97566   1.000
    O849    O    0.95862   0.32417   0.97914   1.000
    O850    O    0.48215   0.38024   0.97566   1.000
    O851    O    0.45863   0.32415   0.97914   1.000
    O852    O    0.93418   0.77426   0.98410   1.000
    O853    O    0.43419   0.77424   0.98411   1.000
    O854    O    0.93421   0.27436   0.98423   1.000
    O855    O    0.43422   0.27434   0.98423   1.000
loop_
    _geom_bond_atom_site_label_1
    _geom_bond_atom_site_label_2
    _geom_bond_distance
    _geom_bond_site_symmetry_2
    _ccdc_geom_bond_type
    C76    O408      0.62569      .   S
    C352   O408      0.62569      .   S
    C77    O409      0.62587      .   S
    C353   O409      0.62587      .   S
    C78    O410      0.62528      .   S
    C354   O410      0.62528      .   S
    C79    O411      0.62550      .   S
    C355   O411      0.62550      .   S
    C313   O412      0.54580      .   S
    C125   O412      0.54580      .   S
    C313   O413      0.70047      .   S
    C309   O413      0.70047      .   S
    C313   O414      0.69721  1_554   S
    C317   O414      0.69721      .   S
    C315   O415      0.54585      .   S
    C127   O415      0.54585      .   S
    C315   O416      0.70035      .   S
    C311   O416      0.70035      .   S
    C315   O417      0.69728  1_554   S
    C319   O417      0.69728      .   S
    C312   O418      0.54587      .   S
    C124   O418      0.54587      .   S
    C312   O419      0.70034      .   S
    C308   O419      0.70034      .   S
    C312   O420      0.69729  1_554   S
    C316   O420      0.69729      .   S
    C314   O421      0.54600      .   S
    C126   O421      0.54600      .   S
    C314   O422      0.70031      .   S
    C310   O422      0.70031      .   S
    C314   O423      0.69729  1_554   S
    C318   O423      0.69729      .   S
    C307   O424      0.70074      .   S
    C311   O424      0.70074      .   S
    C307   O425      0.54567      .   S
    C123   O425      0.54567      .   S
    C307   O426      0.69767      .   S
    C303   O426      0.69767  1_556   S
    C305   O427      0.70074      .   S
    C309   O427      0.70074      .   S
    C305   O428      0.54565      .   S
    C121   O428      0.54565      .   S
    C305   O429      0.69768      .   S
    C301   O429      0.69768  1_556   S
    C306   O430      0.70074      .   S
    C310   O430      0.70074      .   S
    C306   O431      0.54565      .   S
    C122   O431      0.54565      .   S
    C306   O432      0.69765      .   S
    C302   O432      0.69765  1_556   S
    C304   O433      0.70075      .   S
    C308   O433      0.70075      .   S
    C304   O434      0.54550      .   S
    C120   O434      0.54550      .   S
    C304   O435      0.69775      .   S
    C300   O435      0.69775  1_556   S
    C362   O436      0.67819      .   S
    C282   O436      0.67819      .   S
    C362   O437      0.69305      .   S
    C290   O437      0.69305      .   S
    C362   O438      0.73625  1_554   S
    C294   O438      0.73625      .   S
    C360   O439      0.67816      .   S
    C280   O439      0.67816      .   S
    C360   O440      0.69305      .   S
    C288   O440      0.69305      .   S
    C360   O441      0.73640  1_554   S
    C292   O441      0.73640      .   S
    C363   O442      0.67817      .   S
    C283   O442      0.67817      .   S
    C363   O443      0.69305      .   S
    C291   O443      0.69305      .   S
    C363   O444      0.73623  1_554   S
    C295   O444      0.73623      .   S
    C361   O445      0.67782      .   S
    C281   O445      0.67782      .   S
    C361   O446      0.69305      .   S
    C289   O446      0.69305      .   S
    C361   O447      0.73625  1_554   S
    C293   O447      0.73625      .   S
    C309   O448      0.75589      .   S
    C321   O448      0.75589      .   S
    C311   O449      0.75603      .   S
    C323   O449      0.75603      .   S
    C310   O450      0.75604      .   S
    C322   O450      0.75604      .   S
    C308   O451      0.75604      .   S
    C320   O451      0.75604      .   S
    C96    O452      0.54242      .   S
    C280   O452      0.54242      .   S
    C98    O453      0.54240      .   S
    C282   O453      0.54240      .   S
    C97    O454      0.54245      .   S
    C281   O454      0.54245      .   S
    C99    O455      0.54240      .   S
    C283   O455      0.54240      .   S
    C170   O456      0.68564      .   S
    C354   O456      0.68564      .   S
    C170   O457      0.70629      .   S
    C174   O457      0.70629      .   S
    C170   O458      0.71405      .   S
    C166   O458      0.71405  1_556   S
    C168   O459      0.68563      .   S
    C352   O459      0.68563      .   S
    C168   O460      0.70629      .   S
    C172   O460      0.70629      .   S
    C168   O461      0.71405      .   S
    C164   O461      0.71405  1_556   S
    C171   O462      0.68565      .   S
    C355   O462      0.68565      .   S
    C171   O463      0.70630      .   S
    C175   O463      0.70630      .   S
    C171   O464      0.71404      .   S
    C167   O464      0.71404  1_556   S
    C169   O465      0.68564      .   S
    C353   O465      0.68564      .   S
    C169   O466      0.70630      .   S
    C173   O466      0.70630      .   S
    C169   O467      0.71404      .   S
    C165   O467      0.71404  1_556   S
    C176   O468      0.69629      .   S
    C172   O468      0.69629      .   S
    C176   O469      0.75297      .   S
    C188   O469      0.75297      .   S
    C176   O470      0.70372      .   S
    C180   O470      0.70372  1_556   S
    C178   O471      0.69629      .   S
    C174   O471      0.69629      .   S
    C178   O472      0.75297      .   S
    C190   O472      0.75297      .   S
    C178   O473      0.70375      .   S
    C182   O473      0.70375  1_556   S
    C177   O474      0.69631      .   S
    C173   O474      0.69631      .   S
    C177   O475      0.75296      .   S
    C189   O475      0.75296      .   S
    C177   O476      0.70373      .   S
    C181   O476      0.70373  1_556   S
    C179   O477      0.69629      .   S
    C175   O477      0.69629      .   S
    C179   O478      0.75297      .   S
    C191   O478      0.75297      .   S
    C179   O479      0.70374      .   S
    C183   O479      0.70374  1_556   S
    C321   O480      0.54880      .   S
    C137   O480      0.54880      .   S
    C321   O481      0.54968      .   S
    C133   O481      0.54968      .   S
    C321   O482      0.73594      .   S
    C369   O482      0.73594  1_556   S
    C323   O483      0.54872      .   S
    C139   O483      0.54872      .   S
    C323   O484      0.54925      .   S
    C135   O484      0.54925      .   S
    C323   O485      0.73630      .   S
    C371   O485      0.73630  1_556   S
    C322   O486      0.54871      .   S
    C138   O486      0.54871      .   S
    C322   O487      0.54924      .   S
    C134   O487      0.54924      .   S
    C322   O488      0.73629      .   S
    C370   O488      0.73629  1_556   S
    C320   O489      0.54872      .   S
    C136   O489      0.54872      .   S
    C320   O490      0.54925      .   S
    C132   O490      0.54925      .   S
    C320   O491      0.73633      .   S
    C368   O491      0.73633  1_556   S
    C280   O492      0.66851      .   S
    C356   O492      0.66851      .   S
    C281   O493      0.66884      .   S
    C357   O493      0.66884      .   S
    C282   O494      0.66847      .   S
    C358   O494      0.66847      .   S
    C283   O495      0.66854      .   S
    C359   O495      0.66854      .   S
    C107   O496      0.54117      .   S
    C291   O496      0.54117      .   S
    C105   O497      0.54121      .   S
    C289   O497      0.54121      .   S
    C106   O498      0.54119      .   S
    C290   O498      0.54119      .   S
    C104   O499      0.54118      .   S
    C288   O499      0.54118      .   S
    C354   O500      0.50773      .   S
    C82    O500      0.50773      .   S
    C355   O501      0.50770      .   S
    C83    O501      0.50770      .   S
    C352   O502      0.50771      .   S
    C80    O502      0.50771      .   S
    C353   O503      0.50772      .   S
    C81    O503      0.50772      .   S
    C290   O504      0.68459      .   S
    C286   O504      0.68459      .   S
    C291   O505      0.68487      .   S
    C287   O505      0.68487      .   S
    C288   O506      0.68486      .   S
    C284   O506      0.68486      .   S
    C289   O507      0.68480      .   S
    C285   O507      0.68480      .   S
    C172   O508      0.54538      .   S
    C8     O508      0.54538      .   S
    C174   O509      0.54536      .   S
    C10    O509      0.54536      .   S
    C173   O510      0.54536      .   S
    C9     O510      0.54536      .   S
    C175   O511      0.54538      .   S
    C11    O511      0.54538      .   S
    C388   O512      0.62471      .   S
    C188   O512      0.62471      .   S
    C390   O513      0.62471      .   S
    C190   O513      0.62471      .   S
    C389   O514      0.62472      .   S
    C189   O514      0.62472      .   S
    C391   O515      0.62472      .   S
    C191   O515      0.62472      .   S
    C188   O516      0.65222      .   S
    C384   O516      0.65222      .   S
    C190   O517      0.65221      .   S
    C386   O517      0.65221      .   S
    C189   O518      0.65207      .   S
    C385   O518      0.65207      .   S
    C191   O519      0.65220      .   S
    C387   O519      0.65220      .   S
    C358   O520      0.69318      .   S
    C286   O520      0.69318      .   S
    C358   O521      1.00662      .   S
    C6     O521      1.00662      .   S
    C356   O522      0.69308      .   S
    C284   O522      0.69308      .   S
    C356   O523      1.00659      .   S
    C4     O523      1.00659      .   S
    C359   O524      0.69310      .   S
    C287   O524      0.69310      .   S
    C359   O525      1.00668      .   S
    C7     O525      1.00668      .   S
    C357   O526      0.69311      .   S
    C285   O526      0.69311      .   S
    C357   O527      1.00665      .   S
    C5     O527      1.00665      .   S
    C286   O528      0.54166      .   S
    C102   O528      0.54166      .   S
    C284   O529      0.54149      .   S
    C100   O529      0.54149      .   S
    C287   O530      0.53947      .   S
    C103   O530      0.53947  1_545   S
    C285   O531      0.53936      .   S
    C101   O531      0.53936  1_545   S
    C384   O532      1.00039      .   S
    C4     O532      1.00039      .   S
    C385   O533      1.00049      .   S
    C5     O533      1.00049      .   S
    C386   O534      1.00046      .   S
    C6     O534      1.00046      .   S
    C387   O535      1.00050      .   S
    C7     O535      1.00050      .   S
    C4     O536      1.00025      .   S
    C396   O536      1.00025      .   S
    C4     O537      1.00909      .   S
    C344   O537      1.00909      .   S
    C6     O538      1.00026      .   S
    C398   O538      1.00026      .   S
    C6     O539      1.00869      .   S
    C346   O539      1.00869      .   S
    C5     O540      1.00016      .   S
    C397   O540      1.00016      .   S
    C5     O541      1.00905      .   S
    C345   O541      1.00905      .   S
    C7     O542      1.00016      .   S
    C399   O542      1.00016      .   S
    C7     O543      1.00905      .   S
    C347   O543      1.00905      .   S
    C70    O544      0.54303      .   S
    C242   O544      0.54303      .   S
    C69    O545      0.54170      .   S
    C241   O545      0.54170      .   S
    C68    O546      0.54159      .   S
    C240   O546      0.54159      .   S
    C71    O547      0.54151      .   S
    C243   O547      0.54151      .   S
    C396   O548      0.65047      .   S
    C248   O548      0.65047      .   S
    C398   O549      0.65057      .   S
    C250   O549      0.65057      .   S
    C397   O550      0.65057      .   S
    C249   O550      0.65057      .   S
    C399   O551      0.65056      .   S
    C251   O551      0.65056      .   S
    C242   O552      0.69350      .   S
    C346   O552      0.69350      .   S
    C242   O553      0.68478      .   S
    C246   O553      0.68478      .   S
    C243   O554      0.69331      .   S
    C347   O554      0.69331      .   S
    C243   O555      0.68493      .   S
    C247   O555      0.68493      .   S
    C240   O556      0.69337      .   S
    C344   O556      0.69337      .   S
    C240   O557      0.68482      .   S
    C244   O557      0.68482      .   S
    C241   O558      0.69335      .   S
    C345   O558      0.69335      .   S
    C241   O559      0.68479      .   S
    C245   O559      0.68479      .   S
    C93    O560      0.54488      .   S
    C273   O560      0.54488      .   S
    C95    O561      0.54491      .   S
    C275   O561      0.54491      .   S
    C92    O562      0.54489      .   S
    C272   O562      0.54489      .   S
    C94    O563      0.54489      .   S
    C274   O563      0.54489      .   S
    C346   O564      0.66872      .   S
    C238   O564      0.66872      .   S
    C344   O565      0.66835      .   S
    C236   O565      0.66835      .   S
    C345   O566      0.66838      .   S
    C237   O566      0.66838      .   S
    C347   O567      0.66752      .   S
    C239   O567      0.66752      .   S
    C32    O568      0.54944      .   S
    C204   O568      0.54944      .   S
    C34    O569      0.54892      .   S
    C206   O569      0.54892      .   S
    C35    O570      0.54896      .   S
    C207   O570      0.54896      .   S
    C33    O571      0.54888      .   S
    C205   O571      0.54888      .   S
    C39    O572      0.54851      .   S
    C207   O572      0.54851      .   S
    C38    O573      0.54850      .   S
    C206   O573      0.54850      .   S
    C37    O574      0.54850      .   S
    C205   O574      0.54850      .   S
    C36    O575      0.54851      .   S
    C204   O575      0.54851      .   S
    C248   O576      0.63198      .   S
    C393   O576      0.63198      .   S
    C248   O577      0.74578      .   S
    C253   O577      0.74578      .   S
    C250   O578      0.63193      .   S
    C395   O578      0.63193      .   S
    C250   O579      0.74565      .   S
    C255   O579      0.74565      .   S
    C249   O580      0.63203  1_565   S
    C392   O580      0.63203      .   S
    C249   O581      0.74573  1_565   S
    C252   O581      0.74573      .   S
    C251   O582      0.63200  1_565   S
    C394   O582      0.63200      .   S
    C251   O583      0.74569  1_565   S
    C254   O583      0.74569      .   S
    C246   O584      0.54123      .   S
    C74    O584      0.54123      .   S
    C246   O585      0.69296      .   S
    C350   O585      0.69296      .   S
    C247   O586      0.54102      .   S
    C75    O586      0.54102      .   S
    C247   O587      0.69297      .   S
    C351   O587      0.69297      .   S
    C244   O588      0.54122      .   S
    C72    O588      0.54122      .   S
    C244   O589      0.69286      .   S
    C348   O589      0.69286      .   S
    C245   O590      0.54123      .   S
    C73    O590      0.54123      .   S
    C245   O591      0.69296      .   S
    C349   O591      0.69296      .   S
    C273   O592      0.70406      .   S
    C253   O592      0.70406      .   S
    C273   O593      0.69343      .   S
    C269   O593      0.69343      .   S
    C275   O594      0.70396      .   S
    C255   O594      0.70396      .   S
    C275   O595      0.69344      .   S
    C271   O595      0.69344      .   S
    C272   O596      0.70408      .   S
    C252   O596      0.70408      .   S
    C272   O597      0.69342      .   S
    C268   O597      0.69342      .   S
    C274   O598      0.70399      .   S
    C254   O598      0.70399      .   S
    C274   O599      0.69342      .   S
    C270   O599      0.69342      .   S
    C206   O600      0.75594      .   S
    C210   O600      0.75594      .   S
    C206   O601      0.73630      .   S
    C342   O601      0.73630      .   S
    C207   O602      0.75594      .   S
    C211   O602      0.75594      .   S
    C207   O603      0.73628      .   S
    C343   O603      0.73628      .   S
    C204   O604      0.75594      .   S
    C208   O604      0.75594      .   S
    C204   O605      0.73627      .   S
    C340   O605      0.73627      .   S
    C205   O606      0.75597      .   S
    C209   O606      0.75597      .   S
    C205   O607      0.73631      .   S
    C341   O607      0.73631      .   S
    C239   O608      0.54191      .   S
    C67    O608      0.54191      .   S
    C239   O609      0.67915      .   S
    C351   O609      0.67915      .   S
    C238   O610      0.54194      .   S
    C66    O610      0.54194      .   S
    C238   O611      0.67825      .   S
    C350   O611      0.67825      .   S
    C236   O612      0.54194      .   S
    C64    O612      0.54194      .   S
    C236   O613      0.67800      .   S
    C348   O613      0.67800      .   S
    C237   O614      0.54195      .   S
    C65    O614      0.54195      .   S
    C237   O615      0.67825      .   S
    C349   O615      0.67825      .   S
    C89    O616      0.54433      .   S
    C271   O616      0.54433  1_655   S
    C91    O617      0.54430      .   S
    C269   O617      0.54430      .   S
    C90    O618      0.54429      .   S
    C268   O618      0.54429      .   S
    C88    O619      0.54417      .   S
    C270   O619      0.54417  1_655   S
    C255   O620      0.71424      .   S
    C259   O620      0.71424      .   S
    C253   O621      0.71404      .   S
    C257   O621      0.71404      .   S
    C254   O622      0.71417      .   S
    C258   O622      0.71417      .   S
    C252   O623      0.71403      .   S
    C256   O623      0.71403      .   S
    C54    O624      0.54552      .   S
    C230   O624      0.54552      .   S
    C52    O625      0.54554      .   S
    C228   O625      0.54554      .   S
    C55    O626      0.54553      .   S
    C231   O626      0.54553      .   S
    C53    O627      0.54556      .   S
    C229   O627      0.54556      .   S
    C210   O628      0.70069      .   S
    C230   O628      0.70069      .   S
    C210   O629      0.70045      .   S
    C214   O629      0.70045      .   S
    C208   O630      0.70068      .   S
    C228   O630      0.70068      .   S
    C208   O631      0.70045      .   S
    C212   O631      0.70045      .   S
    C209   O632      0.70068      .   S
    C229   O632      0.70068      .   S
    C209   O633      0.70045      .   S
    C213   O633      0.70045      .   S
    C211   O634      0.70069      .   S
    C231   O634      0.70069      .   S
    C211   O635      0.70046      .   S
    C215   O635      0.70046      .   S
    C269   O636      0.70365      .   S
    C265   O636      0.70365      .   S
    C271   O637      0.70376      .   S
    C267   O637      0.70376      .   S
    C268   O638      0.70377      .   S
    C264   O638      0.70377      .   S
    C270   O639      0.70377      .   S
    C266   O639      0.70377      .   S
    C41    O640      0.54597      .   S
    C213   O640      0.54597      .   S
    C43    O641      0.54596      .   S
    C215   O641      0.54596      .   S
    C40    O642      0.54596      .   S
    C212   O642      0.54596      .   S
    C42    O643      0.54597      .   S
    C214   O643      0.54597      .   S
    C228   O644      0.69734      .   S
    C224   O644      0.69734      .   S
    C230   O645      0.69734      .   S
    C226   O645      0.69734      .   S
    C229   O646      0.69734      .   S
    C225   O646      0.69734      .   S
    C231   O647      0.69733      .   S
    C227   O647      0.69733      .   S
    C348   O648      0.73670      .   S
    C232   O648      0.73670      .   S
    C350   O649      0.73640      .   S
    C234   O649      0.73640      .   S
    C351   O650      0.73637      .   S
    C235   O650      0.73637      .   S
    C349   O651      0.73639      .   S
    C233   O651      0.73639      .   S
    C213   O652      0.69762      .   S
    C217   O652      0.69762      .   S
    C212   O653      0.69764      .   S
    C216   O653      0.69764      .   S
    C214   O654      0.69763      .   S
    C218   O654      0.69763      .   S
    C215   O655      0.69608      .   S
    C219   O655      0.69608      .   S
    C224   O656      0.54586      .   S
    C50    O656      0.54586      .   S
    C224   O657      0.69996      .   S
    C220   O657      0.69996      .   S
    C226   O658      0.54582  1_655   S
    C48    O658      0.54582      .   S
    C226   O659      0.70015      .   S
    C222   O659      0.70015      .   S
    C225   O660      0.54587      .   S
    C51    O660      0.54587      .   S
    C225   O661      0.70028      .   S
    C221   O661      0.70028      .   S
    C227   O662      0.54580  1_655   S
    C49    O662      0.54580      .   S
    C227   O663      0.70030      .   S
    C223   O663      0.70030      .   S
    C342   O664      0.67832      .   S
    C194   O664      0.67832      .   S
    C342   O665      0.69292      .   S
    C202   O665      0.69292      .   S
    C343   O666      0.67829      .   S
    C195   O666      0.67829      .   S
    C343   O667      0.69291      .   S
    C203   O667      0.69291      .   S
    C340   O668      0.67833      .   S
    C192   O668      0.67833      .   S
    C340   O669      0.69292      .   S
    C200   O669      0.69292      .   S
    C341   O670      0.67830      .   S
    C193   O670      0.67830      .   S
    C341   O671      0.69292      .   S
    C201   O671      0.69292      .   S
    C219   O672      0.69956      .   S
    C223   O672      0.69956      .   S
    C219   O673      0.54839      .   S
    C47    O673      0.54839      .   S
    C216   O674      0.70089      .   S
    C220   O674      0.70089      .   S
    C216   O675      0.54564      .   S
    C44    O675      0.54564      .   S
    C217   O676      0.70073      .   S
    C221   O676      0.70073      .   S
    C217   O677      0.54566      .   S
    C45    O677      0.54566      .   S
    C218   O678      0.70080      .   S
    C222   O678      0.70080      .   S
    C218   O679      0.54563      .   S
    C46    O679      0.54563      .   S
    C23    O680      0.54233      .   S
    C195   O680      0.54233      .   S
    C22    O681      0.54232      .   S
    C194   O681      0.54232      .   S
    C21    O682      0.54233      .   S
    C193   O682      0.54233      .   S
    C20    O683      0.54232      .   S
    C192   O683      0.54232      .   S
    C152   O684      0.51387      .   S
    C372   O684      0.51387      .   S
    C153   O685      0.51388      .   S
    C373   O685      0.51388      .   S
    C154   O686      0.51390      .   S
    C374   O686      0.51390      .   S
    C155   O687      0.51390      .   S
    C375   O687      0.51390      .   S
    C220   O688      0.75624      .   S
    C234   O688      0.75624      .   S
    C222   O689      0.75601  1_655   S
    C232   O689      0.75601      .   S
    C221   O690      0.75606      .   S
    C235   O690      0.75606      .   S
    C223   O691      0.75594  1_655   S
    C233   O691      0.75594      .   S
    C257   O692      0.68589      .   S
    C373   O692      0.68589      .   S
    C257   O693      0.70621      .   S
    C261   O693      0.70621      .   S
    C256   O694      0.68587      .   S
    C372   O694      0.68587      .   S
    C256   O695      0.70622      .   S
    C260   O695      0.70622      .   S
    C259   O696      0.68586      .   S
    C375   O696      0.68586      .   S
    C259   O697      0.70620      .   S
    C263   O697      0.70620      .   S
    C258   O698      0.68586      .   S
    C374   O698      0.68586      .   S
    C258   O699      0.70622      .   S
    C262   O699      0.70622      .   S
    C265   O700      0.69645      .   S
    C261   O700      0.69645      .   S
    C265   O701      0.75284      .   S
    C279   O701      0.75284      .   S
    C267   O702      0.69638      .   S
    C263   O702      0.69638      .   S
    C267   O703      0.75273  1_655   S
    C277   O703      0.75273      .   S
    C264   O704      0.69636      .   S
    C260   O704      0.69636      .   S
    C264   O705      0.75279      .   S
    C278   O705      0.75279      .   S
    C266   O706      0.69637      .   S
    C262   O706      0.69637      .   S
    C266   O707      0.75272  1_655   S
    C276   O707      0.75272      .   S
    C195   O708      0.66859      .   S
    C339   O708      0.66859      .   S
    C194   O709      0.66856      .   S
    C338   O709      0.66856      .   S
    C193   O710      0.66858      .   S
    C337   O710      0.66858      .   S
    C192   O711      0.66833      .   S
    C336   O711      0.66833      .   S
    C30    O712      0.54117      .   S
    C202   O712      0.54117      .   S
    C31    O713      0.54117      .   S
    C203   O713      0.54117      .   S
    C28    O714      0.54118      .   S
    C200   O714      0.54118      .   S
    C29    O715      0.54118      .   S
    C201   O715      0.54118      .   S
    C234   O716      0.54867      .   S
    C62    O716      0.54867      .   S
    C234   O717      0.54924      .   S
    C58    O717      0.54924      .   S
    C232   O718      0.54866      .   S
    C60    O718      0.54866      .   S
    C232   O719      0.54926      .   S
    C56    O719      0.54926      .   S
    C235   O720      0.54867      .   S
    C63    O720      0.54867      .   S
    C235   O721      0.54926      .   S
    C59    O721      0.54926      .   S
    C233   O722      0.54867      .   S
    C61    O722      0.54867      .   S
    C233   O723      0.54922      .   S
    C57    O723      0.54922      .   S
    C372   O724      0.50776      .   S
    C156   O724      0.50776      .   S
    C374   O725      0.50774      .   S
    C158   O725      0.50774      .   S
    C373   O726      0.50777      .   S
    C157   O726      0.50777      .   S
    C375   O727      0.50780      .   S
    C159   O727      0.50780      .   S
    C202   O728      0.68459      .   S
    C198   O728      0.68459      .   S
    C203   O729      0.68461      .   S
    C199   O729      0.68461      .   S
    C200   O730      0.68461      .   S
    C196   O730      0.68461      .   S
    C201   O731      0.68434      .   S
    C197   O731      0.68434      .   S
    C407   O732      0.62483      .   S
    C279   O732      0.62483      .   S
    C405   O733      0.62483      .   S
    C277   O733      0.62483      .   S
    C406   O734      0.62484      .   S
    C278   O734      0.62484      .   S
    C404   O735      0.62483      .   S
    C276   O735      0.62483      .   S
    C261   O736      0.54535      .   S
    C85    O736      0.54535      .   S
    C263   O737      0.54536      .   S
    C87    O737      0.54536      .   S
    C260   O738      0.54540      .   S
    C84    O738      0.54540      .   S
    C262   O739      0.54537      .   S
    C86    O739      0.54537      .   S
    C279   O740      0.65230      .   S
    C403   O740      0.65230      .   S
    C277   O741      0.65231      .   S
    C401   O741      0.65231      .   S
    C278   O742      0.65228      .   S
    C402   O742      0.65228      .   S
    C276   O743      0.65230      .   S
    C400   O743      0.65230      .   S
    C339   O744      0.69307      .   S
    C199   O744      0.69307      .   S
    C339   O745      1.00484      .   S
    C3     O745      1.00484      .   S
    C336   O746      0.69294      .   S
    C196   O746      0.69294      .   S
    C336   O747      1.00632      .   S
    C0     O747      1.00632      .   S
    C338   O748      0.69306      .   S
    C198   O748      0.69306      .   S
    C338   O749      1.00595      .   S
    C2     O749      1.00595      .   S
    C337   O750      0.69315      .   S
    C197   O750      0.69315      .   S
    C337   O751      1.00600      .   S
    C1     O751      1.00600      .   S
    C199   O752      0.54130      .   S
    C27    O752      0.54130      .   S
    C198   O753      0.54139      .   S
    C26    O753      0.54139      .   S
    C197   O754      0.54154      .   S
    C25    O754      0.54154      .   S
    C196   O755      0.54140      .   S
    C24    O755      0.54140      .   S
    C403   O756      0.99900      .   S
    C3     O756      0.99900      .   S
    C401   O757      0.99917      .   S
    C1     O757      0.99917      .   S
    C402   O758      0.99915      .   S
    C2     O758      0.99915      .   S
    C400   O759      0.99918      .   S
    C0     O759      0.99918      .   S
    C3     O760      1.00238      .   S
    C383   O760      1.00238      .   S
    C3     O761      1.00958      .   S
    C367   O761      1.00958      .   S
    C2     O762      1.00213      .   S
    C382   O762      1.00213      .   S
    C2     O763      1.00898      .   S
    C366   O763      1.00898      .   S
    C1     O764      1.00218      .   S
    C381   O764      1.00218      .   S
    C1     O765      1.00884      .   S
    C365   O765      1.00884      .   S
    C0     O766      1.00212      .   S
    C380   O766      1.00212      .   S
    C0     O767      1.00895      .   S
    C364   O767      1.00895      .   S
    C147   O768      0.54170      .   S
    C331   O768      0.54170      .   S
    C145   O769      0.54171      .   S
    C329   O769      0.54171      .   S
    C146   O770      0.54170      .   S
    C330   O770      0.54170      .   S
    C144   O771      0.54161      .   S
    C328   O771      0.54161      .   S
    C383   O772      0.65031      .   S
    C163   O772      0.65031      .   S
    C381   O773      0.65031      .   S
    C161   O773      0.65031      .   S
    C382   O774      0.65032      .   S
    C162   O774      0.65032      .   S
    C380   O775      0.65032      .   S
    C160   O775      0.65032      .   S
    C331   O776      0.69354      .   S
    C367   O776      0.69354      .   S
    C331   O777      0.68503      .   S
    C335   O777      0.68503      .   S
    C329   O778      0.69344      .   S
    C365   O778      0.69344      .   S
    C329   O779      0.68505      .   S
    C333   O779      0.68505      .   S
    C330   O780      0.69338      .   S
    C366   O780      0.69338      .   S
    C330   O781      0.68506      .   S
    C334   O781      0.68506      .   S
    C328   O782      0.69334      .   S
    C364   O782      0.69334      .   S
    C328   O783      0.68519      .   S
    C332   O783      0.68519      .   S
    C367   O784      0.66866      .   S
    C327   O784      0.66866      .   S
    C365   O785      0.66840      .   S
    C325   O785      0.66840      .   S
    C366   O786      0.66829      .   S
    C326   O786      0.66829      .   S
    C364   O787      0.66833      .   S
    C324   O787      0.66833      .   S
    C16    O788      0.54490      .   S
    C184   O788      0.54490      .   S
    C18    O789      0.54492      .   S
    C186   O789      0.54492      .   S
    C17    O790      0.54490      .   S
    C185   O790      0.54490      .   S
    C19    O791      0.54492      .   S
    C187   O791      0.54492      .   S
    C108   O792      0.54927      .   S
    C292   O792      0.54927      .   S
    C109   O793      0.54898      .   S
    C293   O793      0.54898      .   S
    C111   O794      0.54899      .   S
    C295   O794      0.54899      .   S
    C110   O795      0.54897      .   S
    C294   O795      0.54897      .   S
    C112   O796      0.54858      .   S
    C292   O796      0.54858      .   S
    C114   O797      0.54854      .   S
    C294   O797      0.54854      .   S
    C113   O798      0.54855      .   S
    C293   O798      0.54855      .   S
    C115   O799      0.54853      .   S
    C295   O799      0.54853      .   S
    C163   O800      0.63192      .   S
    C378   O800      0.63192  1_545   S
    C163   O801      0.74586  1_565   S
    C166   O801      0.74586      .   S
    C161   O802      0.63193      .   S
    C376   O802      0.63193  1_545   S
    C161   O803      0.74587  1_565   S
    C164   O803      0.74587      .   S
    C162   O804      0.63201      .   S
    C379   O804      0.63201      .   S
    C162   O805      0.74574      .   S
    C167   O805      0.74574      .   S
    C160   O806      0.63201      .   S
    C377   O806      0.63201      .   S
    C160   O807      0.74573      .   S
    C165   O807      0.74573      .   S
    C333   O808      0.54126      .   S
    C149   O808      0.54126      .   S
    C333   O809      0.69310      .   S
    C369   O809      0.69310      .   S
    C335   O810      0.54126      .   S
    C151   O810      0.54126      .   S
    C335   O811      0.69310      .   S
    C371   O811      0.69310      .   S
    C332   O812      0.54128      .   S
    C148   O812      0.54128      .   S
    C332   O813      0.69309      .   S
    C368   O813      0.69309      .   S
    C334   O814      0.54121      .   S
    C150   O814      0.54121      .   S
    C334   O815      0.69310      .   S
    C370   O815      0.69310      .   S
    C184   O816      0.70403      .   S
    C164   O816      0.70403      .   S
    C184   O817      0.69343      .   S
    C180   O817      0.69343      .   S
    C186   O818      0.70402      .   S
    C166   O818      0.70402      .   S
    C186   O819      0.69341      .   S
    C182   O819      0.69341      .   S
    C185   O820      0.70403      .   S
    C165   O820      0.70403      .   S
    C185   O821      0.69342      .   S
    C181   O821      0.69342      .   S
    C187   O822      0.70403      .   S
    C167   O822      0.70403      .   S
    C187   O823      0.69341      .   S
    C183   O823      0.69341      .   S
    C292   O824      0.75593      .   S
    C298   O824      0.75593  1_655   S
    C293   O825      0.75588      .   S
    C299   O825      0.75588  1_655   S
    C294   O826      0.75598      .   S
    C296   O826      0.75598      .   S
    C295   O827      0.75599      .   S
    C297   O827      0.75599      .   S
    C327   O828      0.54201      .   S
    C143   O828      0.54201      .   S
    C327   O829      0.67809      .   S
    C371   O829      0.67809      .   S
    C325   O830      0.54201      .   S
    C141   O830      0.54201      .   S
    C325   O831      0.67809      .   S
    C369   O831      0.67809      .   S
    C326   O832      0.54202      .   S
    C142   O832      0.54202      .   S
    C326   O833      0.67809      .   S
    C370   O833      0.67809      .   S
    C324   O834      0.54202      .   S
    C140   O834      0.54202      .   S
    C324   O835      0.67804      .   S
    C368   O835      0.67804      .   S
    C12    O836      0.54428      .   S
    C180   O836      0.54428      .   S
    C14    O837      0.54426      .   S
    C182   O837      0.54426      .   S
    C13    O838      0.54426      .   S
    C181   O838      0.54426      .   S
    C15    O839      0.54426      .   S
    C183   O839      0.54426      .   S
    C130   O840      0.54867      .   S
    C316   O840      0.54867      .   S
    C128   O841      0.54550  1_455   S
    C318   O841      0.54550      .   S
    C131   O842      0.54558      .   S
    C317   O842      0.54558      .   S
    C129   O843      0.54553  1_455   S
    C319   O843      0.54553      .   S
    C299   O844      0.70071      .   S
    C319   O844      0.70071      .   S
    C299   O845      0.70038      .   S
    C303   O845      0.70038      .   S
    C297   O846      0.70071      .   S
    C317   O846      0.70071      .   S
    C297   O847      0.70039      .   S
    C301   O847      0.70039      .   S
    C298   O848      0.70071      .   S
    C318   O848      0.70071      .   S
    C298   O849      0.70040      .   S
    C302   O849      0.70040      .   S
    C296   O850      0.70072      .   S
    C316   O850      0.70072      .   S
    C296   O851      0.70024      .   S
    C300   O851      0.70024      .   S
    C119   O852      0.54595      .   S
    C303   O852      0.54595      .   S
    C117   O853      0.54595      .   S
    C301   O853      0.54595      .   S
    C118   O854      0.54596      .   S
    C302   O854      0.54596      .   S
    C116   O855      0.54602      .   S
    C300   O855      0.54602      .   S
