# CIF file generated by openbabel 2.4.90, see http://openbabel.sf.net
data_I
_chemical_name_common ''
_cell_length_a 23.442
_cell_length_b 23.974
_cell_length_c 14.059
_cell_angle_alpha 112.345
_cell_angle_beta 89.896
_cell_angle_gamma 118.644
_space_group_name_H-M_alt 'P 1'
_space_group_name_Hall 'P 1'
loop_
    _symmetry_equiv_pos_as_xyz
    x,y,z
loop_
    _atom_site_label
    _atom_site_type_symbol
    _atom_site_fract_x
    _atom_site_fract_y
    _atom_site_fract_z
    _atom_site_occupancy
    Zr0     Zr   0.16817   0.35880   0.75529   1.000
    Zr1     Zr   0.16816   0.85875   0.75525   1.000
    Zr2     Zr   0.66818   0.35876   0.75523   1.000
    Zr3     Zr   0.66817   0.85872   0.75500   1.000
    Zr4     Zr   0.19290   0.36274   0.25987   1.000
    Zr5     Zr   0.19292   0.86277   0.25999   1.000
    Zr6     Zr   0.69292   0.36272   0.25989   1.000
    Zr7     Zr   0.69295   0.86275   0.26002   1.000
    Zr8     Zr   0.20526   0.49639   0.89786   1.000
    Zr9     Zr   0.20519   0.99632   0.89780   1.000
    Zr10    Zr   0.70529   0.49636   0.89782   1.000
    Zr11    Zr   0.70522   0.99629   0.89776   1.000
    Zr12    Zr   0.16033   0.22671   0.12155   1.000
    Zr13    Zr   0.16037   0.72674   0.12165   1.000
    Zr14    Zr   0.66038   0.22668   0.12159   1.000
    Zr15    Zr   0.66042   0.72671   0.12170   1.000
    Zr16    Zr   0.29275   0.49878   0.40040   1.000
    Zr17    Zr   0.29275   0.99881   0.40052   1.000
    Zr18    Zr   0.79278   0.49876   0.40046   1.000
    Zr19    Zr   0.79277   0.99879   0.40055   1.000
    Zr20    Zr   0.06531   0.22464   0.61967   1.000
    Zr21    Zr   0.06532   0.72458   0.61961   1.000
    Zr22    Zr   0.56531   0.22463   0.61966   1.000
    Zr23    Zr   0.56532   0.72457   0.61959   1.000
    Zr24    Zr   0.26091   0.00170   0.91509   1.000
    Zr25    Zr   0.26097   0.50175   0.91516   1.000
    Zr26    Zr   0.76094   0.00167   0.91499   1.000
    Zr27    Zr   0.76101   0.50172   0.91507   1.000
    Zr28    Zr   0.15358   0.43922   0.82863   1.000
    Zr29    Zr   0.15352   0.93915   0.82856   1.000
    Zr30    Zr   0.65360   0.43919   0.82861   1.000
    Zr31    Zr   0.65353   0.93912   0.82854   1.000
    Zr32    Zr   0.21138   0.28495   0.19107   1.000
    Zr33    Zr   0.21142   0.78499   0.19110   1.000
    Zr34    Zr   0.71142   0.28492   0.19112   1.000
    Zr35    Zr   0.71146   0.78496   0.19121   1.000
    Zr36    Zr   0.10429   0.21835   0.09993   1.000
    Zr37    Zr   0.10433   0.71837   0.10001   1.000
    Zr38    Zr   0.60434   0.21832   0.09997   1.000
    Zr39    Zr   0.60438   0.71834   0.10006   1.000
    Zr40    Zr   0.24306   0.00536   0.42001   1.000
    Zr41    Zr   0.24308   0.50533   0.41994   1.000
    Zr42    Zr   0.74308   0.00533   0.42000   1.000
    Zr43    Zr   0.74309   0.50530   0.41995   1.000
    Zr44    Zr   0.28712   0.44116   0.32991   1.000
    Zr45    Zr   0.28714   0.94119   0.33002   1.000
    Zr46    Zr   0.78715   0.44114   0.32993   1.000
    Zr47    Zr   0.78716   0.94118   0.33005   1.000
    Zr48    Zr   0.07258   0.28334   0.69021   1.000
    Zr49    Zr   0.07258   0.78326   0.69017   1.000
    Zr50    Zr   0.57259   0.28333   0.69017   1.000
    Zr51    Zr   0.57258   0.78326   0.69012   1.000
    Zr52    Zr   0.11243   0.21524   0.59609   1.000
    Zr53    Zr   0.11245   0.71520   0.59602   1.000
    Zr54    Zr   0.61243   0.21522   0.59607   1.000
    Zr55    Zr   0.61245   0.71518   0.59601   1.000
    O56     O    0.13231   0.22253   0.11074   1.000
    O57     O    0.63236   0.22250   0.11078   1.000
    O58     O    0.13235   0.72255   0.11083   1.000
    O59     O    0.63240   0.72253   0.11088   1.000
    O60     O    0.18585   0.25583   0.15631   1.000
    O61     O    0.68590   0.25580   0.15635   1.000
    O62     O    0.18590   0.75586   0.15637   1.000
    O63     O    0.68594   0.75584   0.15645   1.000
    O64     O    0.20214   0.32385   0.22547   1.000
    O65     O    0.20217   0.82388   0.22554   1.000
    O66     O    0.70217   0.32382   0.22550   1.000
    O67     O    0.70221   0.82386   0.22561   1.000
    O68     O    0.24001   0.40195   0.29489   1.000
    O69     O    0.74004   0.40193   0.29491   1.000
    O70     O    0.24003   0.90198   0.29500   1.000
    O71     O    0.74006   0.90196   0.29503   1.000
    O72     O    0.28994   0.46997   0.36515   1.000
    O73     O    0.78996   0.46995   0.36519   1.000
    O74     O    0.28994   0.97001   0.36527   1.000
    O75     O    0.78997   0.96998   0.36530   1.000
    O76     O    0.26792   0.50206   0.41017   1.000
    O77     O    0.76793   0.50203   0.41020   1.000
    O78     O    0.26791   0.00209   0.41026   1.000
    O79     O    0.76793   0.00206   0.41027   1.000
    O80     O    0.58888   0.71988   0.60780   1.000
    O81     O    0.08888   0.71989   0.60781   1.000
    O82     O    0.58887   0.21993   0.60786   1.000
    O83     O    0.08887   0.21994   0.60788   1.000
    O84     O    0.56895   0.75392   0.65485   1.000
    O85     O    0.06895   0.75392   0.65489   1.000
    O86     O    0.56895   0.25398   0.65491   1.000
    O87     O    0.06895   0.25399   0.65494   1.000
    O88     O    0.62037   0.82099   0.72256   1.000
    O89     O    0.12037   0.82101   0.72271   1.000
    O90     O    0.62038   0.32105   0.72270   1.000
    O91     O    0.12038   0.32107   0.72275   1.000
    O92     O    0.66085   0.89892   0.79177   1.000
    O93     O    0.66089   0.39898   0.79192   1.000
    O94     O    0.16084   0.89895   0.79190   1.000
    O95     O    0.16088   0.39901   0.79196   1.000
    O96     O    0.67938   0.96771   0.86315   1.000
    O97     O    0.17935   0.96773   0.86318   1.000
    O98     O    0.67944   0.46778   0.86321   1.000
    O99     O    0.17942   0.46780   0.86324   1.000
    O100    O    0.73308   0.99898   0.90637   1.000
    O101    O    0.23305   0.99901   0.90644   1.000
    O102    O    0.73315   0.49904   0.90644   1.000
    O103    O    0.23312   0.49907   0.90651   1.000
    N104    N    0.93004   0.35756   0.00376   1.000
    O105    O    0.05275   0.36625   0.10693   1.000
    O106    O    0.80784   0.35140   0.90339   1.000
    N107    N    0.20890   0.61541   0.02203   1.000
    O108    O    0.20465   0.57092   0.97478   1.000
    O109    O    0.18770   0.65623   0.05783   1.000
    N110    N    0.70895   0.61538   0.02204   1.000
    O111    O    0.70469   0.57089   0.97477   1.000
    O112    O    0.68775   0.65620   0.05786   1.000
    N113    N    0.43007   0.85748   0.00375   1.000
    O114    O    0.30785   0.85136   0.90339   1.000
    O115    O    0.55279   0.86620   0.10698   1.000
    N116    N    0.93004   0.85749   0.00374   1.000
    O117    O    0.05276   0.86622   0.10697   1.000
    O118    O    0.80783   0.85135   0.90330   1.000
    N119    N    0.90719   0.61599   0.52603   1.000
    O120    O    0.86727   0.57210   0.47781   1.000
    O121    O    0.96854   0.65572   0.55911   1.000
    N122    N    0.40718   0.61601   0.52602   1.000
    O123    O    0.36726   0.57212   0.47779   1.000
    O124    O    0.46853   0.65573   0.55908   1.000
    N125    N    0.43007   0.35755   0.00375   1.000
    O126    O    0.55278   0.36622   0.10692   1.000
    O127    O    0.30785   0.35141   0.90341   1.000
    N128    N    0.90718   0.11606   0.52610   1.000
    O129    O    0.86726   0.07216   0.47789   1.000
    O130    O    0.96853   0.15579   0.55918   1.000
    N131    N    0.42781   0.35766   0.50381   1.000
    O132    O    0.31245   0.36422   0.60430   1.000
    O133    O    0.54519   0.35357   0.40608   1.000
    N134    N    0.20883   0.11535   0.02197   1.000
    O135    O    0.20458   0.07086   0.97472   1.000
    O136    O    0.18764   0.15618   0.05776   1.000
    N137    N    0.70888   0.11533   0.02197   1.000
    O138    O    0.70462   0.07084   0.97470   1.000
    O139    O    0.68769   0.15615   0.05778   1.000
    N140    N    0.42781   0.85764   0.50385   1.000
    O141    O    0.31245   0.86419   0.60432   1.000
    O142    O    0.54520   0.85356   0.40617   1.000
    N143    N    0.92783   0.85764   0.50384   1.000
    O144    O    0.04520   0.85358   0.40616   1.000
    O145    O    0.81246   0.86418   0.60424   1.000
    N146    N    0.92783   0.35767   0.50383   1.000
    O147    O    0.81246   0.36421   0.60430   1.000
    O148    O    0.04519   0.35358   0.40610   1.000
    N149    N    0.40716   0.11607   0.52608   1.000
    O150    O    0.46852   0.15579   0.55916   1.000
    O151    O    0.36725   0.07217   0.47787   1.000
loop_
    _geom_bond_atom_site_label_1
    _geom_bond_atom_site_label_2
    _geom_bond_distance
    _geom_bond_site_symmetry_2
    _ccdc_geom_bond_type
    Zr36   O56       0.62471      .   S
    Zr12   O56       0.62471      .   S
    Zr38   O57       0.62471      .   S
    Zr14   O57       0.62471      .   S
    Zr37   O58       0.62472      .   S
    Zr13   O58       0.62472      .   S
    Zr39   O59       0.62472      .   S
    Zr15   O59       0.62472      .   S
    Zr12   O60       0.65222      .   S
    Zr32   O60       0.65222      .   S
    Zr14   O61       0.65221      .   S
    Zr34   O61       0.65221      .   S
    Zr13   O62       0.65207      .   S
    Zr33   O62       0.65207      .   S
    Zr15   O63       0.65220      .   S
    Zr35   O63       0.65220      .   S
    Zr32   O64       1.00039      .   S
    Zr4    O64       1.00039      .   S
    Zr33   O65       1.00049      .   S
    Zr5    O65       1.00049      .   S
    Zr34   O66       1.00046      .   S
    Zr6    O66       1.00046      .   S
    Zr35   O67       1.00050      .   S
    Zr7    O67       1.00050      .   S
    Zr4    O68       1.00025      .   S
    Zr44   O68       1.00025      .   S
    Zr6    O69       1.00026      .   S
    Zr46   O69       1.00026      .   S
    Zr5    O70       1.00016      .   S
    Zr45   O70       1.00016      .   S
    Zr7    O71       1.00016      .   S
    Zr47   O71       1.00016      .   S
    Zr44   O72       0.65047      .   S
    Zr16   O72       0.65047      .   S
    Zr46   O73       0.65057      .   S
    Zr18   O73       0.65057      .   S
    Zr45   O74       0.65057      .   S
    Zr17   O74       0.65057      .   S
    Zr47   O75       0.65056      .   S
    Zr19   O75       0.65056      .   S
    Zr16   O76       0.63198      .   S
    Zr41   O76       0.63198      .   S
    Zr18   O77       0.63193      .   S
    Zr43   O77       0.63193      .   S
    Zr17   O78       0.63203  1_565   S
    Zr40   O78       0.63203      .   S
    Zr19   O79       0.63200  1_565   S
    Zr42   O79       0.63200      .   S
    Zr55   O80       0.62483      .   S
    Zr23   O80       0.62483      .   S
    Zr53   O81       0.62483      .   S
    Zr21   O81       0.62483      .   S
    Zr54   O82       0.62484      .   S
    Zr22   O82       0.62484      .   S
    Zr52   O83       0.62483      .   S
    Zr20   O83       0.62483      .   S
    Zr23   O84       0.65230      .   S
    Zr51   O84       0.65230      .   S
    Zr21   O85       0.65231      .   S
    Zr49   O85       0.65231      .   S
    Zr22   O86       0.65228      .   S
    Zr50   O86       0.65228      .   S
    Zr20   O87       0.65230      .   S
    Zr48   O87       0.65230      .   S
    Zr51   O88       0.99900      .   S
    Zr3    O88       0.99900      .   S
    Zr49   O89       0.99917      .   S
    Zr1    O89       0.99917      .   S
    Zr50   O90       0.99915      .   S
    Zr2    O90       0.99915      .   S
    Zr48   O91       0.99918      .   S
    Zr0    O91       0.99918      .   S
    Zr3    O92       1.00238      .   S
    Zr31   O92       1.00238      .   S
    Zr2    O93       1.00213      .   S
    Zr30   O93       1.00213      .   S
    Zr1    O94       1.00218      .   S
    Zr29   O94       1.00218      .   S
    Zr0    O95       1.00212      .   S
    Zr28   O95       1.00212      .   S
    Zr31   O96       0.65031      .   S
    Zr11   O96       0.65031      .   S
    Zr29   O97       0.65031      .   S
    Zr9    O97       0.65031      .   S
    Zr30   O98       0.65032      .   S
    Zr10   O98       0.65032      .   S
    Zr28   O99       0.65032      .   S
    Zr8    O99       0.65032      .   S
    Zr11   O100      0.63192      .   S
    Zr26   O100      0.63192  1_545   S
    Zr9    O101      0.63193      .   S
    Zr24   O101      0.63193  1_545   S
    Zr10   O102      0.63201      .   S
    Zr27   O102      0.63201      .   S
    Zr8    O103      0.63201      .   S
    Zr25   O103      0.63201      .   S
    N104   O105      3.10364  1_655   S
    Zr4    O105      3.98131      .   S
    N104   O106      3.10966  1_554   S
    Zr2    O106      3.99340      .   S
    N107   O108      0.97378  1_554   S
    Zr8    O108      1.70816      .   S
    N107   O109      1.24456      .   S
    Zr13   O109      1.98887      .   S
    N110   O111      0.97377  1_554   S
    Zr10   O111      1.70817      .   S
    N110   O112      1.24459      .   S
    Zr15   O112      1.98891      .   S
    N113   O114      3.11050  1_554   S
    Zr1    O114      3.99425      .   S
    N113   O115      3.10390      .   S
    Zr7    O115      3.98170      .   S
    N116   O117      3.10364  1_655   S
    Zr5    O117      3.98142      .   S
    N116   O118      3.11048  1_554   S
    Zr3    O118      3.99477      .   S
    N119   O120      0.97894      .   S
    Zr18   O120      1.71265      .   S
    N119   O121      1.24261      .   S
    Zr21   O121      1.98610  1_455   S
    N122   O123      0.97894      .   S
    Zr16   O123      1.71281      .   S
    N122   O124      1.24261      .   S
    Zr23   O124      1.98620      .   S
    N125   O126      3.10393      .   S
    Zr6    O126      3.98163      .   S
    N125   O127      3.10999  1_554   S
    Zr0    O127      3.99375      .   S
    N128   O129      0.97893      .   S
    Zr19   O129      1.71270  1_565   S
    N128   O130      1.24263      .   S
    Zr20   O130      1.98612  1_455   S
    N131   O132      3.09167      .   S
    Zr0    O132      3.96534      .   S
    N131   O133      3.10024      .   S
    Zr6    O133      3.98185      .   S
    N134   O135      0.97385  1_554   S
    Zr9    O135      1.70837  1_565   S
    N134   O136      1.24456      .   S
    Zr12   O136      1.98886      .   S
    N137   O138      0.97384  1_554   S
    Zr11   O138      1.70835  1_565   S
    N137   O139      1.24458      .   S
    Zr14   O139      1.98889      .   S
    N140   O141      3.09166      .   S
    Zr1    O141      3.96508      .   S
    N140   O142      3.09998      .   S
    Zr7    O142      3.98172      .   S
    N143   O144      3.09948  1_655   S
    Zr5    O144      3.98117      .   S
    N143   O145      3.09126      .   S
    Zr3    O145      3.96383      .   S
    N146   O147      3.09153      .   S
    Zr2    O147      3.96493      .   S
    N146   O148      3.09975  1_655   S
    Zr4    O148      3.98158      .   S
    N149   O150      1.24265      .   S
    Zr22   O150      1.98621      .   S
    N149   O151      0.97890      .   S
    Zr17   O151      1.71273  1_565   S
