# CIF file generated by openbabel 2.4.90, see http://openbabel.sf.net
data_I
_chemical_name_common ''
_cell_length_a 12.465
_cell_length_b 15.968
_cell_length_c 15.972
_cell_angle_alpha 90.002
_cell_angle_beta 89.977
_cell_angle_gamma 90.007
_space_group_name_H-M_alt 'P 1'
_space_group_name_Hall 'P 1'
loop_
    _symmetry_equiv_pos_as_xyz
    x,y,z
loop_
    _atom_site_label
    _atom_site_type_symbol
    _atom_site_fract_x
    _atom_site_fract_y
    _atom_site_fract_z
    _atom_site_occupancy
    Cu0     Cu   0.12443   0.47840   0.99748   1.000
    Cu1     Cu   0.87448   0.49748   0.02164   1.000
    Cu2     Cu   0.37440   0.50248   0.97836   1.000
    Cu3     Cu   0.62560   0.97841   0.50248   1.000
    Cu4     Cu   0.12557   0.02166   0.49740   1.000
    Cu5     Cu   0.37562   0.00246   0.52164   1.000
    Cu6     Cu   0.87559   0.99751   0.47830   1.000
    H7      H    0.24520   0.59559   0.82333   1.000
    H8      H    0.24041   0.62419   0.92950   1.000
    H9      H    0.76133   0.70967   0.71735   1.000
    H10     H    0.75348   0.64203   0.94502   1.000
    H11     H    0.76095   0.60093   0.84468   1.000
    H12     H    0.13087   0.72043   0.83876   1.000
    H13     H    0.23336   0.77515   0.89238   1.000
    H14     H    0.86663   0.73010   0.84721   1.000
    H15     H    0.75997   0.78814   0.89204   1.000
    H16     H    0.74524   0.40440   0.17672   1.000
    H17     H    0.74054   0.37579   0.07055   1.000
    H18     H    0.26131   0.29038   0.28257   1.000
    H19     H    0.25357   0.35803   0.05490   1.000
    H20     H    0.26098   0.39912   0.15524   1.000
    H21     H    0.63093   0.27954   0.16134   1.000
    H22     H    0.73343   0.22484   0.10767   1.000
    H23     H    0.36666   0.26997   0.15266   1.000
    H24     H    0.26000   0.21190   0.10780   1.000
    H25     H    0.49525   0.67675   0.09560   1.000
    H26     H    0.49050   0.57055   0.12418   1.000
    H27     H    0.01134   0.78261   0.20964   1.000
    H28     H    0.00350   0.55488   0.14200   1.000
    H29     H    0.01100   0.65524   0.10092   1.000
    H30     H    0.38090   0.66132   0.22043   1.000
    H31     H    0.48336   0.60765   0.27510   1.000
    Cu32    Cu   0.62444   0.52168   0.00248   1.000
    H33     H    0.11661   0.65268   0.23003   1.000
    H34     H    0.00991   0.60788   0.28808   1.000
    H35     H    0.99516   0.32337   0.90436   1.000
    H36     H    0.99048   0.42956   0.87576   1.000
    H37     H    0.51127   0.21737   0.79033   1.000
    H38     H    0.50350   0.44509   0.85790   1.000
    H39     H    0.51093   0.34472   0.89905   1.000
    H40     H    0.88091   0.33877   0.77955   1.000
    H41     H    0.98344   0.39242   0.72485   1.000
    H42     H    0.61663   0.34728   0.76990   1.000
    H43     H    0.51000   0.39211   0.71189   1.000
    H44     H    0.00481   0.90442   0.32329   1.000
    H45     H    0.00950   0.87581   0.42946   1.000
    H46     H    0.48875   0.79041   0.21739   1.000
    H47     H    0.49647   0.85805   0.44506   1.000
    H48     H    0.48907   0.89914   0.34472   1.000
    H49     H    0.11910   0.77956   0.33868   1.000
    H50     H    0.01658   0.72486   0.39233   1.000
    H51     H    0.38337   0.76998   0.34729   1.000
    H52     H    0.49001   0.71193   0.39208   1.000
    H53     H    0.50479   0.09557   0.67669   1.000
    H54     H    0.50960   0.12415   0.57052   1.000
    H55     H    0.98869   0.20968   0.78259   1.000
    H56     H    0.99657   0.14201   0.55492   1.000
    H57     H    0.98908   0.10092   0.65526   1.000
    H58     H    0.61915   0.22040   0.66126   1.000
    H59     H    0.51669   0.27511   0.60762   1.000
    H60     H    0.88343   0.23007   0.65273   1.000
    H61     H    0.99011   0.28813   0.60791   1.000
    H62     H    0.75487   0.82333   0.59557   1.000
    H63     H    0.75961   0.92953   0.62415   1.000
    H64     H    0.23873   0.71738   0.70969   1.000
    H65     H    0.24657   0.94511   0.64205   1.000
    H66     H    0.23909   0.84474   0.60090   1.000
    H67     H    0.86916   0.83877   0.72036   1.000
    H68     H    0.76665   0.89243   0.77507   1.000
    H69     H    0.13340   0.84729   0.73011   1.000
    H70     H    0.24005   0.89212   0.78810   1.000
    H71     H    0.25479   0.17669   0.40435   1.000
    H72     H    0.25951   0.07050   0.37574   1.000
    H73     H    0.73871   0.28261   0.29038   1.000
    H74     H    0.74650   0.05489   0.35803   1.000
    H75     H    0.73903   0.15526   0.39910   1.000
    H76     H    0.36913   0.16130   0.27950   1.000
    H77     H    0.26663   0.10764   0.22483   1.000
    H78     H    0.63341   0.15267   0.26999   1.000
    H79     H    0.74008   0.10786   0.21194   1.000
    C80     C    0.60952   0.65447   0.87386   1.000
    C81     C    0.55713   0.70928   0.81630   1.000
    C82     C    0.61567   0.76163   0.76198   1.000
    C83     C    0.44235   0.70852   0.81510   1.000
    C84     C    0.38940   0.65023   0.86881   1.000
    C85     C    0.26935   0.64500   0.86793   1.000
    C86     C    0.73677   0.75994   0.76130   1.000
    C87     C    0.72949   0.65494   0.88013   1.000
    C88     C    0.21828   0.72842   0.84289   1.000
    C89     C    0.77886   0.73663   0.84840   1.000
    C90     C    0.10955   0.34557   0.12609   1.000
    C91     C    0.05715   0.29073   0.18365   1.000
    C92     C    0.11566   0.23843   0.23800   1.000
    C93     C    0.94240   0.29151   0.18488   1.000
    C94     C    0.88947   0.34977   0.13122   1.000
    C95     C    0.76942   0.35498   0.13212   1.000
    C96     C    0.23676   0.24011   0.23862   1.000
    C97     C    0.22953   0.34511   0.11900   1.000
    C98     C    0.71834   0.27156   0.15718   1.000
    C99     C    0.27888   0.26343   0.15150   1.000
    C100    C    0.85956   0.62613   0.15440   1.000
    C101    C    0.80716   0.68364   0.20929   1.000
    C102    C    0.86568   0.73802   0.26157   1.000
    C103    C    0.69238   0.68491   0.20845   1.000
    C104    C    0.63945   0.63121   0.15022   1.000
    C105    C    0.51940   0.63214   0.14499   1.000
    C106    C    0.98678   0.73865   0.25989   1.000
    C107    C    0.97953   0.61979   0.15492   1.000
    C108    C    0.46830   0.65717   0.22840   1.000
    C109    C    0.02884   0.65151   0.23650   1.000
    C110    C    0.35951   0.37390   0.84552   1.000
    C111    C    0.30712   0.31631   0.79070   1.000
    C112    C    0.36565   0.26200   0.73837   1.000
    C113    C    0.19234   0.31519   0.79145   1.000
    C114    C    0.13939   0.36883   0.84976   1.000
    C115    C    0.01933   0.36796   0.85496   1.000
    C116    C    0.48675   0.26133   0.74008   1.000
    C117    C    0.47949   0.38018   0.84506   1.000
    C118    C    0.96832   0.34291   0.77156   1.000
    C119    C    0.52886   0.34846   0.76338   1.000
    C120    C    0.64048   0.84560   0.37380   1.000
    C121    C    0.69289   0.79077   0.31630   1.000
    C122    C    0.63437   0.73841   0.26201   1.000
    C123    C    0.80767   0.79150   0.31514   1.000
    C124    C    0.86060   0.84979   0.36879   1.000
    C125    C    0.98066   0.85500   0.36789   1.000
    C126    C    0.51327   0.74014   0.26133   1.000
    C127    C    0.52050   0.84513   0.38017   1.000
    C128    C    0.03169   0.77158   0.34284   1.000
    C129    C    0.47114   0.76344   0.34845   1.000
    C130    C    0.14051   0.15446   0.62608   1.000
    C131    C    0.19288   0.20929   0.68364   1.000
    C132    C    0.13435   0.26161   0.73799   1.000
    C133    C    0.30766   0.20849   0.68485   1.000
    C134    C    0.36061   0.15020   0.63118   1.000
    C135    C    0.48066   0.14497   0.63208   1.000
    C136    C    0.01325   0.25994   0.73864   1.000
    C137    C    0.02053   0.15493   0.61981   1.000
    C138    C    0.53175   0.22839   0.65712   1.000
    C139    C    0.97120   0.23661   0.65153   1.000
    C140    C    0.39053   0.87391   0.65440   1.000
    C141    C    0.44291   0.81635   0.70928   1.000
    C142    C    0.38437   0.76201   0.76162   1.000
    C143    C    0.55769   0.81517   0.70840   1.000
    C144    C    0.61064   0.86882   0.65019   1.000
    C145    C    0.73070   0.86795   0.64497   1.000
    C146    C    0.26327   0.76135   0.75990   1.000
    C147    C    0.27055   0.88019   0.65495   1.000
    C148    C    0.78175   0.84291   0.72836   1.000
    C149    C    0.22117   0.84848   0.73660   1.000
    C150    C    0.89049   0.12608   0.34555   1.000
    C151    C    0.94290   0.18370   0.29078   1.000
    C152    C    0.88439   0.23798   0.23840   1.000
    C153    C    0.05765   0.18483   0.29146   1.000
    C154    C    0.11057   0.13123   0.34978   1.000
    C155    C    0.23063   0.13209   0.35494   1.000
    C156    C    0.76328   0.23864   0.24013   1.000
    C157    C    0.77051   0.11980   0.34511   1.000
    C158    C    0.28172   0.15715   0.27150   1.000
    C159    C    0.72118   0.15150   0.26340   1.000
    N160    N    0.55497   0.60182   0.92259   1.000
    N161    N    0.44342   0.59857   0.91884   1.000
    N162    N    0.05503   0.39828   0.07744   1.000
    N163    N    0.94350   0.40139   0.08111   1.000
    N164    N    0.80503   0.57743   0.10173   1.000
    N165    N    0.69348   0.58115   0.09856   1.000
    N166    N    0.30497   0.42261   0.89819   1.000
    N167    N    0.19342   0.41886   0.90141   1.000
    N168    N    0.69501   0.89825   0.42258   1.000
    N169    N    0.80656   0.90146   0.41883   1.000
    N170    N    0.19504   0.10173   0.57743   1.000
    N171    N    0.30660   0.09860   0.58108   1.000
    N172    N    0.44507   0.92256   0.60173   1.000
    N173    N    0.55663   0.91892   0.59800   1.000
    N174    N    0.94502   0.07741   0.39823   1.000
    N175    N    0.05653   0.08117   0.40142   1.000
loop_
    _geom_bond_atom_site_label_1
    _geom_bond_atom_site_label_2
    _geom_bond_distance
    _geom_bond_site_symmetry_2
    _ccdc_geom_bond_type
    Cu32   N165      1.99957      .   S
    Cu32   N160      2.00414  1_554   S
    Cu1    N163      1.99945      .   S
    Cu1    N164      2.00376      .   S
    H19    C97       1.08642      .   S
    H17    C95       1.09878      .   S
    N162   N163      1.39234  1_455   S
    N162   C90       1.33218      .   S
    N162   Cu0       2.00375  1_554   S
    N163   C94       1.33150      .   S
    H25    C105      1.10482      .   S
    N165   N164      1.39275      .   S
    N165   C104      1.33146      .   S
    H29    C107      1.10356  1_455   S
    N164   C100      1.33211      .   S
    H22    C98       1.10318      .   S
    H24    C99       1.10436      .   S
    C97    C90       1.49982      .   S
    C97    C99       1.53279      .   S
    C97    H20       1.11023      .   S
    H26    C105      1.09878      .   S
    C90    C91       1.42762      .   S
    C94    C95       1.49883      .   S
    C94    C93       1.42686      .   S
    C95    C98       1.52963      .   S
    C95    H16       1.10487      .   S
    H28    C107      1.09828  1_455   S
    C105   C104      1.49884      .   S
    C105   C108      1.52959      .   S
    C104   C103      1.42693      .   S
    C99    H23       1.09919      .   S
    C99    C96       1.53296      .   S
    C100   C107      1.49892      .   S
    C100   C101      1.42770      .   S
    C107   C109      1.52730  1_655   S
    C98    H21       1.09898      .   S
    C98    C156      1.53172      .   S
    C91    C93       1.43049  1_455   S
    C91    C92       1.40841      .   S
    C93    C152      1.40845      .   S
    C103   C101      1.43092      .   S
    C103   C122      1.40847      .   S
    C101   C102      1.40839      .   S
    H27    C106      1.10922  1_455   S
    H79    C159      1.10298      .   S
    H46    C126      1.10936      .   S
    H30    C108      1.09897      .   S
    H77    C158      1.10278      .   S
    C108   C126      1.53165      .   S
    C108   H31       1.10322      .   S
    H33    C109      1.09908      .   S
    C109   C106      1.53308  1_455   S
    C109   H34       1.10433      .   S
    C92    C96       1.50983      .   S
    C92    C153      1.40849      .   S
    C152   C156      1.50983      .   S
    C152   C151      1.40845      .   S
    C96    C158      1.53145      .   S
    C96    H18       1.10940      .   S
    C156   C159      1.53274      .   S
    C156   H73       1.10933      .   S
    C106   C102      1.50982      .   S
    C106   C128      1.53158  1_655   S
    C126   C122      1.50984      .   S
    C126   C129      1.53293      .   S
    C102   C123      1.40846      .   S
    C122   C121      1.40835      .   S
    C159   H78       1.09926      .   S
    C159   C157      1.52917      .   S
    C158   H76       1.09904      .   S
    C158   C155      1.53006      .   S
    C151   C153      1.43051  1_655   S
    C151   C150      1.42766      .   S
    C153   C154      1.42692      .   S
    C123   C121      1.43093      .   S
    C123   C124      1.42693      .   S
    C121   C120      1.42699      .   S
    H44    C125      1.10477  1_455   S
    H49    C128      1.09898      .   S
    C128   C125      1.52943  1_455   S
    C128   H50       1.10309      .   S
    H48    C127      1.10370      .   S
    C157   C150      1.49893      .   S
    C157   H74       1.09834      .   S
    C157   H75       1.10367      .   S
    C150   N174      1.33209      .   S
    H51    C129      1.09919      .   S
    C129   C127      1.52856      .   S
    C129   H52       1.10356      .   S
    C154   C155      1.49882      .   S
    C154   N175      1.33137      .   S
    C155   H72       1.09882      .   S
    C155   H71       1.10489      .   S
    C125   C124      1.49884      .   S
    C125   H45       1.09863  1_655   S
    C124   N169      1.33145      .   S
    C120   C127      1.49898      .   S
    C120   N168      1.33268      .   S
    C127   H47       1.09830      .   S
    N174   N175      1.39228  1_655   S
    N174   Cu6       2.00272  1_545   S
    N175   Cu4       1.99874      .   S
    N169   N168      1.39271      .   S
    N169   Cu6       1.99885      .   S
    N168   Cu3       2.00368      .   S
    Cu4    N170      2.00470      .   S
    Cu3    N173      1.99194      .   S
    Cu5    N171      1.99945      .   S
    Cu5    N172      2.00372  1_545   S
    H56    C137      1.09824  1_655   S
    H54    C135      1.09870      .   S
    N170   N171      1.39277      .   S
    N170   C130      1.33210      .   S
    N171   C134      1.33146      .   S
    H62    C145      1.10488      .   S
    N173   N172      1.39314      .   S
    N173   C144      1.33741      .   S
    H66    C147      1.10436      .   S
    N172   C140      1.33145      .   S
    H59    C138      1.10312      .   S
    H61    C139      1.10345      .   S
    C137   C130      1.49890      .   S
    C137   C139      1.52838  1_455   S
    C137   H57       1.10355  1_455   S
    H63    C145      1.09877      .   S
    C130   C131      1.42771      .   S
    C134   C135      1.49885      .   S
    C134   C133      1.42694      .   S
    C135   C138      1.52963      .   S
    C135   H53       1.10486      .   S
    H65    C147      1.09839      .   S
    C145   C144      1.49885      .   S
    C145   C148      1.52957      .   S
    C144   C143      1.42603      .   S
    C139   H60       1.09918      .   S
    C139   C136      1.53287  1_655   S
    C140   C147      1.49891      .   S
    C140   C141      1.42829      .   S
    C147   C149      1.52820      .   S
    C138   H58       1.09899      .   S
    C138   C116      1.53173      .   S
    C131   C133      1.43092      .   S
    C131   C132      1.40838      .   S
    C133   C112      1.40844      .   S
    C143   C141      1.43094      .   S
    C143   C82       1.40927      .   S
    C141   C142      1.40839      .   S
    H64    C146      1.10894      .   S
    H43    C119      1.10344      .   S
    H9     C86       1.10933      .   S
    H67    C148      1.09899      .   S
    H41    C118      1.10314      .   S
    C148   C86       1.53167      .   S
    C148   H68       1.10323      .   S
    H69    C149      1.09914      .   S
    C149   C146      1.53290      .   S
    C149   H70       1.10350      .   S
    C132   C136      1.50983      .   S
    C132   C113      1.40841      .   S
    C112   C116      1.50983      .   S
    C112   C111      1.40805      .   S
    C136   C118      1.53144  1_455   S
    C136   H55       1.10922  1_455   S
    C116   C119      1.53291      .   S
    C116   H37       1.10932      .   S
    C146   C142      1.50983      .   S
    C146   C88       1.53210      .   S
    C86    C82       1.50982      .   S
    C86    C89       1.53289      .   S
    C142   C83       1.40795      .   S
    C82    C81       1.40832      .   S
    C119   H42       1.09919      .   S
    C119   C117      1.52862      .   S
    C118   H40       1.09898      .   S
    C118   C115      1.52949  1_655   S
    C111   C113      1.43093      .   S
    C111   C110      1.42798      .   S
    C113   C114      1.42696      .   S
    C83    C81       1.43092      .   S
    C83    C84       1.42740      .   S
    C81    C80       1.42775      .   S
    H7     C85       1.10482      .   S
    H12    C88       1.09898      .   S
    C88    C85       1.52965      .   S
    C88    H13       1.10314      .   S
    H11    C87       1.10368      .   S
    C117   C110      1.49889      .   S
    C117   H38       1.09813      .   S
    C117   H39       1.10369      .   S
    C110   N166      1.33209      .   S
    H14    C89       1.09918      .   S
    C89    C87       1.52855      .   S
    C89    H15       1.10354      .   S
    C114   C115      1.49884      .   S
    C114   N167      1.33144      .   S
    C115   H36       1.09864  1_455   S
    C115   H35       1.10465  1_455   S
    C85    C84       1.49886      .   S
    C85    H8        1.09878      .   S
    C84    N161      1.33152      .   S
    C80    C87       1.49888      .   S
    C80    N160      1.33205      .   S
    C87    H10       1.09836      .   S
    N166   N167      1.39269      .   S
    N166   Cu2       2.00386      .   S
    N167   Cu0       1.99921      .   S
    N161   N160      1.39274      .   S
    N161   Cu2       1.99937      .   S
