# CIF file generated by openbabel 2.4.90, see http://openbabel.sf.net
data_I
_chemical_name_common ''
_cell_length_a 12.465
_cell_length_b 15.968
_cell_length_c 15.972
_cell_angle_alpha 90.002
_cell_angle_beta 89.977
_cell_angle_gamma 90.007
_space_group_name_H-M_alt 'P 1'
_space_group_name_Hall 'P 1'
loop_
    _symmetry_equiv_pos_as_xyz
    x,y,z
loop_
    _atom_site_label
    _atom_site_type_symbol
    _atom_site_fract_x
    _atom_site_fract_y
    _atom_site_fract_z
    _atom_site_occupancy
    Cu0     Cu   0.12443   0.47840   0.99748   1.000
    Cu1     Cu   0.87448   0.49748   0.02164   1.000
    Cu2     Cu   0.37440   0.50248   0.97836   1.000
    Cu3     Cu   0.62560   0.97841   0.50248   1.000
    Cu4     Cu   0.12557   0.02166   0.49740   1.000
    Cu5     Cu   0.37562   0.00246   0.52164   1.000
    Cu6     Cu   0.87559   0.99751   0.47830   1.000
    Cu7     Cu   0.62444   0.52168   0.00248   1.000
