# CIF file generated by openbabel 2.4.90, see http://openbabel.sf.net
data_I
_chemical_name_common ''
_cell_length_a 12.465
_cell_length_b 15.968
_cell_length_c 15.972
_cell_angle_alpha 90.002
_cell_angle_beta 89.977
_cell_angle_gamma 90.007
_space_group_name_H-M_alt 'P 1'
_space_group_name_Hall 'P 1'
loop_
    _symmetry_equiv_pos_as_xyz
    x,y,z
loop_
    _atom_site_label
    _atom_site_type_symbol
    _atom_site_fract_x
    _atom_site_fract_y
    _atom_site_fract_z
    _atom_site_occupancy
    Zr0     Zr   0.62444   0.52168   0.00248   1.000
    Zr1     Zr   0.12443   0.47840   0.99748   1.000
    Zr2     Zr   0.87448   0.49748   0.02164   1.000
    Zr3     Zr   0.37440   0.50248   0.97836   1.000
    Zr4     Zr   0.62560   0.97841   0.50248   1.000
    Zr5     Zr   0.12557   0.02166   0.49740   1.000
    Zr6     Zr   0.37562   0.00246   0.52164   1.000
    Zr7     Zr   0.87559   0.99751   0.47830   1.000
    N8      N    0.75001   0.73087   0.26913   1.000
    O9      O    0.79554   0.84018   0.35885   1.000
    O10     O    0.79488   0.63416   0.16541   1.000
    O11     O    0.70516   0.83460   0.36583   1.000
    O12     O    0.70448   0.64114   0.15982   1.000
    N13     N    0.00002   0.23085   0.23083   1.000
    O14     O    0.95451   0.34014   0.14110   1.000
    O15     O    0.04554   0.14113   0.34012   1.000
    O16     O    0.95516   0.13416   0.33455   1.000
    O17     O    0.04488   0.33460   0.13414   1.000
    N18     N    0.50002   0.76917   0.76911   1.000
    O19     O    0.54557   0.85892   0.65968   1.000
    O20     O    0.54486   0.66546   0.86582   1.000
    O21     O    0.45446   0.65984   0.85886   1.000
    O22     O    0.45518   0.86584   0.66540   1.000
    N23     N    0.25002   0.26915   0.73083   1.000
    O24     O    0.20516   0.16543   0.63412   1.000
    O25     O    0.20447   0.35889   0.84014   1.000
    O26     O    0.29556   0.15984   0.64110   1.000
    O27     O    0.29485   0.36585   0.83455   1.000
loop_
    _geom_bond_atom_site_label_1
    _geom_bond_atom_site_label_2
    _geom_bond_distance
    _geom_bond_site_symmetry_2
    _ccdc_geom_bond_type
    N8     O9        2.32859      .   S
    Zr7    O9        3.30880      .   S
    N8     O10       2.33263      .   S
    Zr2    O10       3.31949      .   S
    N8     O11       2.33257      .   S
    Zr4    O11       3.31945      .   S
    N8     O12       2.32874      .   S
    Zr0    O12       3.30928      .   S
    N13    O14       2.32859  1_455   S
    Zr2    O14       3.30909      .   S
    N13    O15       2.32864      .   S
    Zr5    O15       3.30880      .   S
    N13    O16       2.33244  1_455   S
    Zr7    O16       3.31878  1_565   S
    N13    O17       2.33253      .   S
    Zr1    O17       3.31943  1_556   S
    N18    O19       2.33037      .   S
    Zr4    O19       3.30721      .   S
    N18    O20       2.33279      .   S
    Zr0    O20       3.31984  1_554   S
    N18    O21       2.32885      .   S
    Zr3    O21       3.30935      .   S
    N18    O22       2.33248      .   S
    Zr6    O22       3.31931  1_545   S
    N23    O24       2.33286      .   S
    Zr5    O24       3.32018      .   S
    N23    O25       2.32869      .   S
    Zr1    O25       3.30915      .   S
    N23    O26       2.32868      .   S
    Zr6    O26       3.30915      .   S
    N23    O27       2.33262      .   S
    Zr3    O27       3.31956      .   S
