# CIF file generated by openbabel 2.4.90, see http://openbabel.sf.net
data_I
_chemical_name_common ''
_cell_length_a 19.226
_cell_length_b 22.029
_cell_length_c 18.973
_cell_angle_alpha 101.661
_cell_angle_beta 87.803
_cell_angle_gamma 90.678
_space_group_name_H-M_alt 'P 1'
_space_group_name_Hall 'P 1'
loop_
    _symmetry_equiv_pos_as_xyz
    x,y,z
loop_
    _atom_site_label
    _atom_site_type_symbol
    _atom_site_fract_x
    _atom_site_fract_y
    _atom_site_fract_z
    _atom_site_occupancy
    H0      H    0.10957   0.19588   0.76238   1.000
    H1      H    0.12138   0.69322   0.77220   1.000
    H2      H    0.62275   0.19226   0.77072   1.000
    H3      H    0.60903   0.69879   0.75990   1.000
    H4      H    0.11282   0.13470   0.63601   1.000
    H5      H    0.11175   0.61984   0.65368   1.000
    H6      H    0.61225   0.11919   0.65217   1.000
    H7      H    0.61214   0.63767   0.63353   1.000
    H8      H    0.38980   0.13875   0.67044   1.000
    H9      H    0.38826   0.63208   0.63839   1.000
    H10     H    0.88896   0.13337   0.63844   1.000
    H11     H    0.88896   0.63566   0.67251   1.000
    H12     H    0.40034   0.21015   0.79068   1.000
    H13     H    0.38559   0.69297   0.76458   1.000
    H14     H    0.88613   0.19424   0.76469   1.000
    H15     H    0.89864   0.70716   0.79278   1.000
    H16     H    0.11705   0.04766   0.99539   1.000
    H17     H    0.10523   0.56619   0.99121   1.000
    H18     H    0.60449   0.06715   0.98994   1.000
    H19     H    0.61817   0.54956   0.99374   1.000
    H20     H    0.38245   0.04970   0.00000   1.000
    H21     H    0.39553   0.56497   0.99571   1.000
    H22     H    0.89452   0.06377   0.99661   1.000
    H23     H    0.88335   0.54804   0.00000   1.000
    H24     H    0.35193   0.04481   0.70936   1.000
    H25     H    0.36421   0.55517   0.73833   1.000
    H26     H    0.86400   0.05610   0.73739   1.000
    H27     H    0.85029   0.54197   0.71168   1.000
    H28     H    0.36196   0.11718   0.82890   1.000
    H29     H    0.36152   0.61606   0.86456   1.000
    H30     H    0.86163   0.11640   0.86380   1.000
    H31     H    0.86015   0.61339   0.83196   1.000
    H32     H    0.13909   0.13128   0.84960   1.000
    H33     H    0.13764   0.61532   0.86698   1.000
    H34     H    0.63772   0.11521   0.86721   1.000
    H35     H    0.63780   0.63426   0.84784   1.000
    H36     H    0.12917   0.05733   0.73160   1.000
    H37     H    0.14077   0.55429   0.74055   1.000
    H38     H    0.64053   0.05455   0.74064   1.000
    H39     H    0.62793   0.56088   0.72943   1.000
    H40     H    0.36676   0.20091   0.48481   1.000
    H41     H    0.35578   0.68600   0.50821   1.000
    H42     H    0.85621   0.18758   0.50629   1.000
    H43     H    0.86708   0.70262   0.48620   1.000
    H44     H    0.14507   0.18337   0.51221   1.000
    H45     H    0.13335   0.70102   0.50566   1.000
    H46     H    0.63357   0.20182   0.50625   1.000
    H47     H    0.64520   0.68414   0.51046   1.000
    H48     H    0.39127   0.30382   0.23989   1.000
    H49     H    0.37857   0.80689   0.23068   1.000
    H50     H    0.87805   0.30792   0.23053   1.000
    H51     H    0.89114   0.80234   0.24082   1.000
    H52     H    0.38800   0.36399   0.36668   1.000
    H53     H    0.38863   0.87990   0.34936   1.000
    H54     H    0.88782   0.38099   0.34922   1.000
    H55     H    0.88780   0.86285   0.36750   1.000
    H56     H    0.11042   0.36283   0.33165   1.000
    H57     H    0.11169   0.86617   0.36425   1.000
    H58     H    0.61189   0.36728   0.36331   1.000
    H59     H    0.61148   0.86570   0.32828   1.000
    H60     H    0.10062   0.29154   0.21123   1.000
    H61     H    0.11460   0.80597   0.23770   1.000
    H62     H    0.61472   0.30741   0.23663   1.000
    H63     H    0.60131   0.79447   0.20794   1.000
    H64     H    0.38398   0.45336   0.00000   1.000
    H65     H    0.39487   0.93552   0.00000   1.000
    H66     H    0.89630   0.43391   0.00000   1.000
    H67     H    0.88237   0.95239   0.00000   1.000
    H68     H    0.11822   0.45212   0.98723   1.000
    H69     H    0.10491   0.93628   0.00668   1.000
    H70     H    0.60662   0.43793   0.00427   1.000
    H71     H    0.61690   0.95298   0.98576   1.000
    H72     H    0.14874   0.45595   0.29254   1.000
    H73     H    0.13587   0.94305   0.26433   1.000
    H74     H    0.63620   0.44473   0.26374   1.000
    H75     H    0.64995   0.95975   0.29060   1.000
    H76     H    0.13905   0.38434   0.17236   1.000
    H77     H    0.13852   0.88376   0.13744   1.000
    H78     H    0.63914   0.38468   0.13720   1.000
    H79     H    0.63999   0.88833   0.17000   1.000
    H80     H    0.36187   0.36898   0.15319   1.000
    H81     H    0.36242   0.88516   0.13462   1.000
    H82     H    0.86300   0.38535   0.13524   1.000
    H83     H    0.86228   0.86718   0.15440   1.000
    C84     C    0.81594   0.72417   0.49250   1.000
    C85     C    0.19037   0.21266   0.50747   1.000
    C86     C    0.18435   0.72278   0.50402   1.000
    C87     C    0.68442   0.22374   0.50400   1.000
    H88     H    0.37147   0.44206   0.27187   1.000
    H89     H    0.35931   0.94478   0.26164   1.000
    H90     H    0.85963   0.44580   0.26184   1.000
    H91     H    0.87228   0.94052   0.27287   1.000
    H92     H    0.13231   0.29769   0.51750   1.000
    H93     H    0.14533   0.81277   0.49594   1.000
    H94     H    0.64462   0.31359   0.49633   1.000
    H95     H    0.63210   0.79838   0.51549   1.000
    H96     H    0.35401   0.31521   0.49014   1.000
    H97     H    0.36777   0.79775   0.49830   1.000
    H98     H    0.86728   0.29939   0.49652   1.000
    H99     H    0.85398   0.81682   0.49109   1.000
    C100    C    0.51204   0.20317   0.78894   1.000
    C101    C    0.49712   0.69804   0.77076   1.000
    C102    C    0.99760   0.19717   0.77204   1.000
    C103    C    0.00000   0.70226   0.79070   1.000
    C104    C    0.06155   0.18220   0.73480   1.000
    C105    C    0.07078   0.68049   0.74977   1.000
    C106    C    0.57204   0.18044   0.74812   1.000
    C107    C    0.56096   0.68421   0.73283   1.000
    C108    C    0.06334   0.14821   0.66438   1.000
    C109    C    0.06537   0.63969   0.68396   1.000
    C110    C    0.56613   0.13981   0.68220   1.000
    C111    C    0.56267   0.65022   0.66240   1.000
    C112    C    0.50005   0.12227   0.65618   1.000
    C113    C    0.50044   0.62962   0.62874   1.000
    C114    C    0.00000   0.12877   0.63008   1.000
    C115    C    0.99951   0.62109   0.65795   1.000
    C116    C    0.26059   0.45095   0.29048   1.000
    C117    C    0.24734   0.94595   0.27158   1.000
    C118    C    0.74764   0.44742   0.27143   1.000
    C119    C    0.76154   0.95210   0.29004   1.000
    C120    C    0.19502   0.43732   0.26109   1.000
    C121    C    0.44051   0.15083   0.69295   1.000
    C122    C    0.43649   0.64695   0.66509   1.000
    C123    C    0.93714   0.14731   0.66569   1.000
    C124    C    0.93954   0.64861   0.69490   1.000
    C125    C    0.44637   0.19068   0.75939   1.000
    C126    C    0.43492   0.68094   0.73536   1.000
    C127    C    0.93549   0.18129   0.73596   1.000
    C128    C    0.94492   0.68853   0.76134   1.000
    C129    C    0.49271   0.06489   0.00213   1.000
    C130    C    0.50758   0.56356   0.99400   1.000
    C131    C    0.00000   0.06205   0.99530   1.000
    C132    C    0.99349   0.56359   0.00382   1.000
    C133    C    0.06598   0.02623   0.99821   1.000
    C134    C    0.05992   0.53682   0.99560   1.000
    C135    C    0.55903   0.03791   0.99413   1.000
    C136    C    0.56723   0.52791   0.99655   1.000
    C137    C    0.43347   0.02794   0.00000   1.000
    C138    C    0.44132   0.53674   0.99753   1.000
    C139    C    0.94016   0.03546   0.99879   1.000
    C140    C    0.93446   0.52645   0.00000   1.000
    C141    C    0.24001   0.04897   0.71225   1.000
    C142    C    0.25274   0.55260   0.73094   1.000
    C143    C    0.75249   0.05325   0.73048   1.000
    C144    C    0.73869   0.54943   0.71229   1.000
    C145    C    0.30572   0.06330   0.74104   1.000
    C146    C    0.31487   0.56829   0.76704   1.000
    C147    C    0.81473   0.06894   0.76636   1.000
    C148    C    0.80410   0.56168   0.74249   1.000
    C149    C    0.31129   0.10371   0.80710   1.000
    C150    C    0.31330   0.60228   0.83730   1.000
    C151    C    0.81333   0.10260   0.83670   1.000
    C152    C    0.80960   0.60156   0.80890   1.000
    C153    C    0.25136   0.13104   0.84435   1.000
    C154    C    0.24939   0.62099   0.87293   1.000
    C155    C    0.74951   0.12107   0.87275   1.000
    C156    C    0.74996   0.63052   0.84505   1.000
    C157    C    0.18544   0.11168   0.81909   1.000
    C158    C    0.18710   0.60175   0.83860   1.000
    C159    C    0.68713   0.10181   0.83861   1.000
    C160    C    0.68404   0.61332   0.81827   1.000
    C161    C    0.17986   0.07051   0.75356   1.000
    C162    C    0.18882   0.56780   0.76816   1.000
    C163    C    0.68867   0.06810   0.76806   1.000
    C164    C    0.67848   0.57253   0.75248   1.000
    C165    C    0.25669   0.18568   0.49816   1.000
    C166    C    0.24380   0.68718   0.50750   1.000
    C167    C    0.74420   0.18833   0.50678   1.000
    C168    C    0.75694   0.68694   0.49805   1.000
    C169    C    0.31574   0.22268   0.49188   1.000
    C170    C    0.31012   0.71417   0.50556   1.000
    C171    C    0.81030   0.21559   0.50416   1.000
    C172    C    0.69047   0.71363   0.50636   1.000
    C173    C    0.98888   0.29781   0.21260   1.000
    C174    C    0.00311   0.80211   0.23078   1.000
    C175    C    0.50322   0.30357   0.22969   1.000
    C176    C    0.48938   0.79869   0.21105   1.000
    C177    C    0.43931   0.31772   0.26736   1.000
    C178    C    0.42929   0.81988   0.25268   1.000
    C179    C    0.92863   0.32007   0.25320   1.000
    C180    C    0.93915   0.81631   0.26831   1.000
    C181    C    0.43751   0.35115   0.33803   1.000
    C182    C    0.43495   0.86051   0.31858   1.000
    C183    C    0.93412   0.36068   0.31919   1.000
    C184    C    0.93731   0.84992   0.33889   1.000
    C185    C    0.00003   0.37866   0.34553   1.000
    C186    C    0.99952   0.86970   0.37307   1.000
    C187    C    0.49971   0.37087   0.37226   1.000
    C188    C    0.50090   0.87959   0.34396   1.000
    C189    C    0.05984   0.35046   0.30896   1.000
    C190    C    0.06352   0.85190   0.33710   1.000
    C191    C    0.56369   0.35315   0.33618   1.000
    C192    C    0.56077   0.85250   0.30636   1.000
    C193    C    0.05439   0.31067   0.24242   1.000
    C194    C    0.06523   0.81832   0.26669   1.000
    C195    C    0.56535   0.31972   0.26563   1.000
    C196    C    0.55513   0.81271   0.23987   1.000
    C197    C    0.00807   0.43652   0.99911   1.000
    C198    C    0.99287   0.93801   0.00000   1.000
    C199    C    0.49456   0.43935   0.00000   1.000
    C200    C    0.50666   0.93780   0.99751   1.000
    C201    C    0.43493   0.47501   0.00000   1.000
    C202    C    0.44033   0.96476   0.00000   1.000
    C203    C    0.94163   0.46330   0.00000   1.000
    C204    C    0.93344   0.97382   0.00000   1.000
    C205    C    0.06710   0.47368   0.99336   1.000
    C206    C    0.05926   0.96460   0.00454   1.000
    C207    C    0.56083   0.46617   0.00243   1.000
    C208    C    0.56588   0.97474   0.99182   1.000
    C209    C    0.18521   0.93043   0.23541   1.000
    C210    C    0.68561   0.43183   0.23509   1.000
    C211    C    0.69611   0.93998   0.25985   1.000
    C212    C    0.18964   0.39736   0.19468   1.000
    C213    C    0.18678   0.89731   0.16470   1.000
    C214    C    0.68733   0.39827   0.16460   1.000
    C215    C    0.69055   0.90009   0.19340   1.000
    C216    C    0.24960   0.36989   0.15768   1.000
    C217    C    0.25067   0.87921   0.12870   1.000
    C218    C    0.75126   0.37974   0.12886   1.000
    C219    C    0.75014   0.87098   0.15735   1.000
    C220    C    0.31546   0.38871   0.18352   1.000
    C221    C    0.31294   0.89824   0.16321   1.000
    C222    C    0.81345   0.39877   0.16352   1.000
    C223    C    0.81609   0.88815   0.18400   1.000
    C224    C    0.32086   0.42936   0.24943   1.000
    C225    C    0.31123   0.93140   0.23403   1.000
    C226    C    0.81159   0.43239   0.23416   1.000
    C227    C    0.82171   0.92894   0.24983   1.000
    C228    C    0.24238   0.31291   0.50422   1.000
    C229    C    0.25731   0.81160   0.49660   1.000
    C230    C    0.75666   0.31284   0.49580   1.000
    C231    C    0.74223   0.81407   0.50368   1.000
    C232    C    0.18332   0.27591   0.51046   1.000
    C233    C    0.19099   0.78461   0.49859   1.000
    C234    C    0.69054   0.28560   0.49848   1.000
    C235    C    0.68322   0.77682   0.50910   1.000
    C236    C    0.30870   0.28592   0.49480   1.000
    C237    C    0.31676   0.77599   0.50007   1.000
    C238    C    0.81642   0.27744   0.49870   1.000
    C239    C    0.80870   0.78736   0.49525   1.000
loop_
    _geom_bond_atom_site_label_1
    _geom_bond_atom_site_label_2
    _geom_bond_distance
    _geom_bond_site_symmetry_2
    _ccdc_geom_bond_type
    C199   C201      1.39747      .   S
    C199   C207      1.39646      .   S
    C204   C198      1.39613      .   S
    C204   H67       1.08444      .   S
    C204   C139      1.36705  1_564   S
    C203   C140      1.39960      .   S
    C203   H66       1.07929      .   S
    C203   C197      1.41133  1_654   S
    C202   H65       1.07952      .   S
    C202   C137      1.39956  1_565   S
    C202   C200      1.40826  1_554   S
    C201   H64       1.08435      .   S
    C201   C138      1.37398  1_554   S
    H20    C137      1.09676      .   S
    H23    C140      1.09678      .   S
    C198   C206      1.39645  1_655   S
    C140   C132      1.38673      .   S
    C137   C129      1.38910      .   S
    C129   C135      1.40305  1_554   S
    C207   H70       1.08952      .   S
    C207   C136      1.39063  1_554   S
    C132   C134      1.40322  1_654   S
    C206   H69       1.08951      .   S
    C206   C133      1.39103  1_564   S
    C217   C221      1.40528      .   S
    C217   C213      1.40427      .   S
    C218   C222      1.40519      .   S
    C218   C214      1.40476      .   S
    H81    C221      1.08911      .   S
    H82    C222      1.08917      .   S
    H78    C214      1.08896      .   S
    H77    C213      1.08868      .   S
    H80    C220      1.08840      .   S
    H83    C223      1.08821      .   S
    C219   C223      1.40251      .   S
    C219   C215      1.40401      .   S
    C216   C220      1.40306      .   S
    C216   C212      1.40399      .   S
    C221   C225      1.39301      .   S
    C222   C226      1.39349      .   S
    C214   C210      1.39059      .   S
    C213   C209      1.39100      .   S
    H79    C215      1.09084      .   S
    H76    C212      1.08789      .   S
    C220   C224      1.38982      .   S
    C223   C227      1.39045      .   S
    C215   C211      1.39050      .   S
    C212   C120      1.39016      .   S
    H63    C196      1.08877      .   S
    C176   C196      1.40282      .   S
    C176   C178      1.40367      .   S
    H60    C193      1.08871      .   S
    C173   C193      1.40280  1_655   S
    C173   C179      1.40286      .   S
    C175   C195      1.40449      .   S
    C175   C177      1.40332      .   S
    H50    C179      1.08714      .   S
    H49    C178      1.08780      .   S
    C174   C194      1.40427      .   S
    C174   C180      1.40316  1_455   S
    C225   H89       1.08819      .   S
    C225   C117      1.40313      .   S
    C226   H90       1.08813      .   S
    C226   C118      1.40342      .   S
    C210   H74       1.08773      .   S
    C210   C118      1.40470      .   S
    C209   H73       1.08769      .   S
    C209   C117      1.40468      .   S
    H62    C195      1.08776      .   S
    H61    C194      1.08775      .   S
    C196   C192      1.39025      .   S
    H48    C177      1.08813      .   S
    H51    C180      1.08812      .   S
    C193   C189      1.39067      .   S
    C224   H88       1.08775      .   S
    C224   C116      1.40344      .   S
    C227   H91       1.08772      .   S
    C227   C119      1.40347      .   S
    C178   C182      1.38993      .   S
    C179   C183      1.39073      .   S
    C211   C119      1.40267      .   S
    C211   H75       1.08821      .   S
    C120   C116      1.40278      .   S
    C120   H72       1.08864      .   S
    C195   C191      1.39062      .   S
    C194   C190      1.38946      .   S
    C177   C181      1.39258      .   S
    C180   C184      1.39241      .   S
    C192   H59       1.08779      .   S
    C192   C188      1.40405      .   S
    C189   H56       1.08791      .   S
    C189   C185      1.40388      .   S
    C182   C188      1.40309      .   S
    C182   H53       1.08841      .   S
    C183   C185      1.40319  1_655   S
    C183   H54       1.08839      .   S
    C191   H58       1.08886      .   S
    C191   C187      1.40448      .   S
    C190   H57       1.08903      .   S
    C190   C186      1.40453  1_455   S
    C181   H52       1.08910      .   S
    C181   C187      1.40499      .   S
    C184   H55       1.08912      .   S
    C184   C186      1.40486      .   S
    H40    C169      1.08867      .   S
    H43    C84       1.08870      .   S
    H96    C236      1.08942      .   S
    H99    C239      1.08966      .   S
    C169   C236      1.39097      .   S
    C169   C165      1.40517      .   S
    C84    C239      1.39084      .   S
    C84    C168      1.40506      .   S
    C236   C228      1.40315      .   S
    C239   C231      1.40323      .   S
    C230   C234      1.40290      .   S
    C230   C238      1.40522      .   S
    H93    C233      1.08946      .   S
    H94    C234      1.08955      .   S
    H98    C238      1.08855      .   S
    C229   C233      1.40296      .   S
    C229   C237      1.40498      .   S
    C168   C172      1.40314      .   S
    C165   C85       1.40310      .   S
    H97    C237      1.08870      .   S
    C234   C87       1.39089      .   S
    C233   C86       1.39039      .   S
    C238   C171      1.39052      .   S
    C237   C170      1.39081      .   S
    C231   C235      1.40486      .   S
    C87    H46       1.08862      .   S
    C87    C167      1.40519      .   S
    C86    H45       1.08859      .   S
    C86    C166      1.40497      .   S
    C171   H42       1.08946      .   S
    C171   C167      1.40280      .   S
    C228   C232      1.40509      .   S
    C170   C166      1.40286      .   S
    C170   H41       1.08951      .   S
    C172   C235      1.39100      .   S
    C172   H47       1.08963      .   S
    C85    C232      1.39090      .   S
    C85    H44       1.08963      .   S
    C235   H95       1.08865      .   S
    C232   H92       1.08868      .   S
    C113   C111      1.40490      .   S
    C113   C122      1.40455      .   S
    C114   C108      1.42329      .   S
    C114   C123      1.38616  1_455   S
    H7     C111      1.08920      .   S
    H4     C108      1.08906      .   S
    H9     C122      1.08879      .   S
    H10    C123      1.08885      .   S
    H6     C110      1.08767      .   S
    H5     C109      1.08841      .   S
    C112   C110      1.40247      .   S
    C112   C121      1.40403      .   S
    C115   C109      1.40316  1_655   S
    C115   C124      1.40383      .   S
    C111   C107      1.39281      .   S
    C108   C104      1.39269      .   S
    C122   C126      1.39028      .   S
    C123   C127      1.39018      .   S
    H8     C121      1.08793      .   S
    H11    C124      1.08794      .   S
    C110   C106      1.39075      .   S
    C109   C105      1.38984      .   S
    C121   C125      1.39052      .   S
    C124   C128      1.39032      .   S
    H24    C145      1.08864      .   S
    H27    C148      1.08874      .   S
    C141   C145      1.40284      .   S
    C141   C161      1.40346      .   S
    C144   C148      1.40277      .   S
    C144   C164      1.40343      .   S
    H39    C164      1.08769      .   S
    C143   C147      1.40446      .   S
    C143   C163      1.40313      .   S
    C142   C146      1.40458      .   S
    C142   C162      1.40306      .   S
    H36    C161      1.08783      .   S
    C107   H3        1.08819      .   S
    C107   C101      1.40336      .   S
    C104   H0        1.08807      .   S
    C104   C102      1.40296  1_455   S
    C126   H13       1.08777      .   S
    C126   C101      1.40430      .   S
    C127   H14       1.08766      .   S
    C127   C102      1.40458      .   S
    H26    C147      1.08766      .   S
    H25    C146      1.08777      .   S
    H37    C162      1.08817      .   S
    H38    C163      1.08810      .   S
    C145   C149      1.38993      .   S
    C148   C152      1.38957      .   S
    C106   H2        1.08769      .   S
    C106   C100      1.40349      .   S
    C105   H1        1.08777      .   S
    C105   C103      1.57125      .   S
    C164   C160      1.38973      .   S
    C161   C157      1.38986      .   S
    C125   C100      1.40269      .   S
    C125   H12       1.08874      .   S
    C128   C103      1.22173  1_655   S
    C128   H15       1.08859      .   S
    C147   C151      1.38901      .   S
    C146   C150      1.39017      .   S
    C163   C159      1.39280      .   S
    C162   C158      1.39272      .   S
    C149   H28       1.08747      .   S
    C149   C153      1.40406      .   S
    C152   H31       1.08829      .   S
    C152   C156      1.40445      .   S
    C160   C156      1.40297      .   S
    C160   H35       1.08831      .   S
    C157   C153      1.40322      .   S
    C157   H32       1.08823      .   S
    C151   H30       1.08888      .   S
    C151   C155      1.40501      .   S
    C150   H29       1.08895      .   S
    C150   C154      1.40432      .   S
    C158   H33       1.08909      .   S
    C158   C154      1.40503      .   S
    C159   H34       1.08915      .   S
    C159   C155      1.40502      .   S
    H71    C208      1.08862      .   S
    H68    C205      1.08869      .   S
    H18    C135      1.08959      .   S
    H17    C134      1.08964      .   S
    C208   C135      1.39108  1_565   S
    C208   C200      1.40520      .   S
    C205   C134      1.39113      .   S
    C205   C197      1.40522      .   S
    H19    C136      1.08860      .   S
    C130   C136      1.40531      .   S
    C130   C138      1.40292      .   S
    C131   C133      1.51045      .   S
    C131   C139      1.29029  1_455   S
    H16    C133      1.08859      .   S
    H21    C138      1.08947      .   S
    H22    C139      1.08953      .   S
