# CIF file generated by openbabel 2.4.90, see http://openbabel.sf.net
data_I
_chemical_name_common ''
_cell_length_a 19.226
_cell_length_b 22.029
_cell_length_c 18.973
_cell_angle_alpha 101.661
_cell_angle_beta 87.803
_cell_angle_gamma 90.678
_space_group_name_H-M_alt 'P 1'
_space_group_name_Hall 'P 1'
loop_
    _symmetry_equiv_pos_as_xyz
    x,y,z
loop_
    _atom_site_label
    _atom_site_type_symbol
    _atom_site_fract_x
    _atom_site_fract_y
    _atom_site_fract_z
    _atom_site_occupancy
    C0      C    0.51832   0.23302   0.86632   1.000
    C1      C    0.49433   0.72603   0.84974   1.000
    C2      C    0.99428   0.22500   0.85104   1.000
    C3      C    0.00000   0.73252   0.86802   1.000
    C4      C    0.49254   0.06879   0.59438   1.000
    C5      C    0.50174   0.58661   0.55658   1.000
    C6      C    0.00000   0.08568   0.55802   1.000
    C7      C    0.99276   0.56766   0.59595   1.000
    C8      C    0.48463   0.13259   0.00430   1.000
    C9      C    0.51523   0.62996   0.98851   1.000
    C10     C    0.00000   0.12836   0.98936   1.000
    C11     C    0.98496   0.63127   0.00592   1.000
    C12     C    0.23382   0.01843   0.63504   1.000
    C13     C    0.25599   0.52466   0.65190   1.000
    C14     C    0.75545   0.02571   0.65139   1.000
    C15     C    0.73306   0.51943   0.63485   1.000
    C16     C    0.25812   0.18508   0.90564   1.000
    C17     C    0.24804   0.66401   0.94506   1.000
    C18     C    0.74850   0.16393   0.94498   1.000
    C19     C    0.75743   0.68403   0.90682   1.000
    O20     O    0.21085   0.90966   0.48738   1.000
    O21     O    0.70998   0.41075   0.48565   1.000
    O22     O    0.67198   0.90355   0.51516   1.000
    C23     C    0.26508   0.11796   0.49560   1.000
    C24     C    0.23574   0.62071   0.51277   1.000
    C25     C    0.73685   0.12175   0.51190   1.000
    C26     C    0.76548   0.61928   0.49578   1.000
    C27     C    0.98310   0.26814   0.13508   1.000
    C28     C    0.00623   0.77477   0.15169   1.000
    C29     C    0.50611   0.27629   0.15052   1.000
    C30     C    0.48301   0.76889   0.13365   1.000
    C31     C    0.00697   0.43226   0.40731   1.000
    C32     C    0.99798   0.91246   0.44536   1.000
    C33     C    0.49813   0.41338   0.44476   1.000
    C34     C    0.50789   0.93308   0.40590   1.000
    C35     C    0.01650   0.36885   0.99701   1.000
    C36     C    0.98482   0.87169   0.00000   1.000
    C37     C    0.48673   0.37296   0.00000   1.000
    C38     C    0.51492   0.87015   0.99556   1.000
    C39     C    0.26645   0.48074   0.36790   1.000
    C40     C    0.24411   0.97312   0.35081   1.000
    C41     C    0.74429   0.47518   0.35055   1.000
    C42     C    0.76725   0.98194   0.36751   1.000
    C43     C    0.24282   0.31618   0.09600   1.000
    C44     C    0.25200   0.83707   0.05593   1.000
    C45     C    0.75249   0.33729   0.05625   1.000
    C46     C    0.74262   0.81730   0.09570   1.000
    C47     C    0.23406   0.38066   0.50692   1.000
    C48     C    0.26514   0.87806   0.49126   1.000
    C49     C    0.76421   0.37932   0.49039   1.000
    C50     C    0.73370   0.88178   0.50632   1.000
    O51     O    0.46325   0.24308   0.90628   1.000
    O52     O    0.43374   0.73841   0.87950   1.000
    O53     O    0.93341   0.23737   0.88006   1.000
    O54     O    0.96103   0.74182   0.90768   1.000
    O55     O    0.05021   0.23226   0.88550   1.000
    O56     O    0.07755   0.74386   0.89180   1.000
    O57     O    0.57975   0.24323   0.88986   1.000
    O58     O    0.55070   0.73344   0.88342   1.000
    O59     O    0.43169   0.05297   0.57410   1.000
    O60     O    0.44362   0.56744   0.53005   1.000
    O61     O    0.94453   0.06689   0.53081   1.000
    O62     O    0.93228   0.55201   0.57430   1.000
    O63     O    0.06122   0.06922   0.52735   1.000
    O64     O    0.04801   0.53830   0.57063   1.000
    O65     O    0.54754   0.03957   0.56788   1.000
    O66     O    0.56034   0.57063   0.52520   1.000
    O67     O    0.42291   0.15443   0.01239   1.000
    O68     O    0.46093   0.66149   0.98446   1.000
    O69     O    0.96067   0.16020   0.98516   1.000
    O70     O    0.92323   0.65300   0.01510   1.000
    O71     O    0.07675   0.14985   0.98850   1.000
    O72     O    0.03850   0.66409   0.99744   1.000
    O73     O    0.53851   0.16535   0.99706   1.000
    O74     O    0.57712   0.65184   0.98780   1.000
    O75     O    0.17249   0.00781   0.61140   1.000
    O76     O    0.19998   0.51748   0.61700   1.000
    O77     O    0.69932   0.01873   0.61729   1.000
    O78     O    0.67189   0.50905   0.61069   1.000
    O79     O    0.28904   0.00819   0.59534   1.000
    O80     O    0.31678   0.51210   0.62286   1.000
    O81     O    0.81615   0.01326   0.62197   1.000
    O82     O    0.78857   0.50941   0.59557   1.000
    O83     O    0.20264   0.21343   0.93218   1.000
    O84     O    0.18931   0.68035   0.97580   1.000
    O85     O    0.68997   0.18118   0.97564   1.000
    O86     O    0.70282   0.71456   0.93186   1.000
    O87     O    0.31877   0.20229   0.92540   1.000
    O88     O    0.30607   0.68281   0.97220   1.000
    O89     O    0.80670   0.18177   0.97232   1.000
    O90     O    0.81812   0.69866   0.92850   1.000
    O91     O    0.21138   0.08503   0.50296   1.000
    O92     O    0.17376   0.59900   0.51270   1.000
    O93     O    0.67501   0.09973   0.51241   1.000
    O94     O    0.71180   0.58633   0.50316   1.000
    O95     O    0.32686   0.09632   0.48724   1.000
    O96     O    0.28978   0.58902   0.51742   1.000
    O97     O    0.79128   0.09036   0.51580   1.000
    O98     O    0.82729   0.59767   0.48759   1.000
    O99     O    0.03846   0.25809   0.09562   1.000
    O100    O    0.06692   0.76250   0.12219   1.000
    O101    O    0.56671   0.26408   0.12072   1.000
    O102    O    0.53802   0.75972   0.09347   1.000
    O103    O    0.44979   0.26926   0.11673   1.000
    O104    O    0.42163   0.75781   0.11029   1.000
    O105    O    0.92186   0.25810   0.11098   1.000
    O106    O    0.95007   0.76780   0.11761   1.000
    O107    O    0.06749   0.44791   0.42877   1.000
    O108    O    0.05600   0.93101   0.47270   1.000
    O109    O    0.55602   0.43225   0.47214   1.000
    O110    O    0.56862   0.94924   0.42630   1.000
    O111    O    0.43930   0.42928   0.47561   1.000
    O112    O    0.45267   0.96199   0.43234   1.000
    O113    O    0.95181   0.46180   0.43255   1.000
    O114    O    0.93918   0.92884   0.47594   1.000
    O115    O    0.07835   0.34729   0.98971   1.000
    O116    O    0.03891   0.83995   0.00000   1.000
    O117    O    0.54090   0.34122   0.00000   1.000
    O118    O    0.57671   0.84847   0.98731   1.000
    O119    O    0.42473   0.35134   0.00000   1.000
    O120    O    0.46122   0.83731   0.00000   1.000
    O121    O    0.96274   0.33577   0.00000   1.000
    O122    O    0.92281   0.85008   0.00000   1.000
    O123    O    0.32770   0.49106   0.39190   1.000
    O124    O    0.30018   0.98094   0.38505   1.000
    O125    O    0.80025   0.48241   0.38497   1.000
    O126    O    0.82845   0.99216   0.39162   1.000
    O127    O    0.21110   0.49064   0.40749   1.000
    O128    O    0.18324   0.98449   0.38019   1.000
    O129    O    0.68348   0.48765   0.37970   1.000
    O130    O    0.71183   0.99196   0.40691   1.000
    O131    O    0.29825   0.28818   0.06870   1.000
    O132    O    0.31068   0.82107   0.02486   1.000
    O133    O    0.81105   0.32025   0.02550   1.000
    O134    O    0.79727   0.78674   0.07088   1.000
    O135    O    0.18208   0.29886   0.07660   1.000
    O136    O    0.19397   0.81861   0.02853   1.000
    O137    O    0.69437   0.31962   0.02850   1.000
    O138    O    0.68190   0.80260   0.07420   1.000
    O139    O    0.28782   0.41355   0.49961   1.000
    O140    O    0.32705   0.89989   0.49047   1.000
    O141    O    0.82606   0.40133   0.49040   1.000
    O142    O    0.78733   0.91472   0.49866   1.000
    O143    O    0.17233   0.40243   0.51542   1.000
loop_
    _geom_bond_atom_site_label_1
    _geom_bond_atom_site_label_2
    _geom_bond_distance
    _geom_bond_site_symmetry_2
    _ccdc_geom_bond_type
    O122   C36       1.27856      .   S
    C37    O119      1.27844      .   S
    C37    O117      1.26115      .   S
    C36    O116      1.26001  1_655   S
    O121   C35       1.26377  1_654   S
    O120   C38       1.26375  1_554   S
    C8     O67       1.27792      .   S
    C8     O73       1.27439  1_554   S
    C11    O70       1.27754      .   S
    C11    O72       1.27470  1_654   S
    O132   C44       1.27247      .   S
    O133   C45       1.27283      .   S
    O137   C45       1.27643      .   S
    O136   C44       1.27615      .   S
    O131   C43       1.27615      .   S
    O134   C46       1.27648      .   S
    O138   C46       1.26822      .   S
    O135   C43       1.26905      .   S
    O102   C30       1.27337      .   S
    O99    C27       1.27282  1_455   S
    O104   C30       1.27991      .   S
    O105   C27       1.28005      .   S
    O103   C29       1.27140      .   S
    O106   C28       1.27153  1_655   S
    O101   C29       1.28243      .   S
    O100   C28       1.28231      .   S
    C41    O129      1.28252      .   S
    C41    O125      1.27173      .   S
    C40    O128      1.28207      .   S
    C40    O124      1.27190      .   S
    C42    O126      1.27968      .   S
    C42    O130      1.27301      .   S
    C39    O123      1.28000      .   S
    C39    O127      1.27365      .   S
    C34    O110      1.26848      .   S
    C34    O112      1.27695      .   S
    C31    O107      1.26844      .   S
    C31    O113      1.27635  1_455   S
    C33    O109      1.27579      .   S
    C33    O111      1.27287      .   S
    C32    O108      1.27603  1_655   S
    C32    O114      1.27257      .   S
    O21    C49       1.27425      .   S
    O95    C23       1.27740      .   S
    O20    C48       1.27402      .   S
    O98    C26       1.27761      .   S
    C49    O141      1.27886      .   S
    O140   C48       1.27909      .   S
    C23    O91       1.27436      .   S
    C26    O94       1.27437      .   S
    O142   C50       1.27454      .   S
    O139   C47       1.27446      .   S
    C50    O22       1.27745      .   S
    C47    O143      1.27750      .   S
    C25    O93       1.27921      .   S
    C25    O97       1.27367      .   S
    O92    C24       1.27886      .   S
    C24    O96       1.27410      .   S
    O66    C5        1.27303      .   S
    O63    C6        1.31445      .   S
    O60    C5        1.27537      .   S
    O61    C6        1.23320  1_655   S
    O65    C4        1.27662      .   S
    O64    C7        1.27626  1_455   S
    O59    C4        1.26843      .   S
    O62    C7        1.26865      .   S
    O79    C12       1.27312      .   S
    O82    C15       1.27325      .   S
    O78    C15       1.27988      .   S
    O75    C12       1.27987      .   S
    O76    C13       1.27710      .   S
    O77    C14       1.27141      .   S
    O81    C14       1.28225      .   S
    O80    C13       1.28179      .   S
    C1     O52       1.28259      .   S
    C1     O58       1.27138      .   S
    C2     O53       1.28234      .   S
    C2     O55       1.27154  1_655   S
    C0     O57       1.27997      .   S
    C0     O51       1.27313      .   S
    C3     O56       1.57681      .   S
    C3     O54       1.03321  1_455   S
    C16    O87       1.26883      .   S
    C16    O83       1.27624      .   S
    C19    O90       1.26829      .   S
    C19    O86       1.27662      .   S
    C18    O89       1.27571      .   S
    C18    O85       1.27258      .   S
    C17    O88       1.27593      .   S
    C17    O84       1.27241      .   S
    O68    C9        1.27390      .   S
    O69    C10       1.05365  1_655   S
    O118   C38       1.27778      .   S
    O74    C9        1.27909      .   S
    O71    C10       1.54482      .   S
    O115   C35       1.27796      .   S
