# CIF file generated by openbabel 2.4.90, see http://openbabel.sf.net
data_I
_chemical_name_common ''
_cell_length_a 19.226
_cell_length_b 22.029
_cell_length_c 18.973
_cell_angle_alpha 101.661
_cell_angle_beta 87.803
_cell_angle_gamma 90.678
_space_group_name_H-M_alt 'P 1'
_space_group_name_Hall 'P 1'
loop_
    _symmetry_equiv_pos_as_xyz
    x,y,z
loop_
    _atom_site_label
    _atom_site_type_symbol
    _atom_site_fract_x
    _atom_site_fract_y
    _atom_site_fract_z
    _atom_site_occupancy
    N0      N    0.74949   0.41490   0.19957   1.000
    N1      N    0.50108   0.50146   0.99842   1.000
    N2      N    0.24558   0.08798   0.77969   1.000
    N3      N    0.49504   0.83708   0.27888   1.000
    N4      N    0.99428   0.33616   0.28045   1.000
    N5      N    0.49876   0.66515   0.69916   1.000
    N6      N    0.99906   0.00003   0.99955   1.000
    N7      N    0.50623   0.16476   0.72118   1.000
    N8      N    0.25104   0.58546   0.80254   1.000
    N9      N    0.74410   0.58795   0.78004   1.000
    N10     N    0.75097   0.08580   0.80220   1.000
    N11     N    0.00408   0.66365   0.72298   1.000
    N12     N    0.25055   0.74939   0.50205   1.000
    N13     N    0.74959   0.75050   0.50082   1.000
    N14     N    0.24953   0.24929   0.50117   1.000
    N15     N    0.24903   0.91393   0.19957   1.000
    N16     N    0.25523   0.41249   0.22268   1.000
    N17     N    0.00131   0.83456   0.30251   1.000
    N18     N    0.00078   0.50006   0.99703   1.000
    N19     N    0.75042   0.25059   0.50133   1.000
    N20     N    0.50147   0.33587   0.30157   1.000
    N21     N    0.99926   0.16431   0.70045   1.000
    N22     N    0.49968   0.00134   0.99613   1.000
    N23     N    0.75606   0.91360   0.22223   1.000
    Zr24    Zr   0.24861   0.50020   0.50853   1.000
    Zr25    Zr   0.75116   0.49973   0.49415   1.000
    C26     C    0.23309   0.60291   0.51430   1.000
    O27     O    0.23913   0.65229   0.51019   1.000
    O28     O    0.21820   0.56382   0.51205   1.000
    O29     O    0.25929   0.56273   0.51241   1.000
    C30     C    0.50190   0.57489   0.53728   1.000
    O31     O    0.50091   0.60576   0.59159   1.000
    O32     O    0.58938   0.54606   0.51966   1.000
    O33     O    0.41293   0.54603   0.52548   1.000
    C34     C    0.49782   0.42497   0.46417   1.000
    O35     O    0.41035   0.45380   0.48212   1.000
    O36     O    0.58680   0.45380   0.47648   1.000
    O37     O    0.49901   0.39448   0.40960   1.000
    C38     C    0.00876   0.44733   0.42288   1.000
    O39     O    0.91834   0.46890   0.45074   1.000
    O40     O    0.00382   0.40907   0.37566   1.000
    O41     O    0.09275   0.46715   0.45585   1.000
    C42     C    0.74267   0.48175   0.37174   1.000
    O43     O    0.76635   0.48868   0.41922   1.000
    O44     O    0.72516   0.48912   0.41871   1.000
    O45     O    0.74520   0.45992   0.31351   1.000
    C46     C    0.23140   0.39888   0.50732   1.000
    O47     O    0.21718   0.43724   0.50890   1.000
    O48     O    0.25820   0.43879   0.50669   1.000
    O49     O    0.23764   0.34846   0.50534   1.000
    C50     C    0.76675   0.39713   0.48881   1.000
    O51     O    0.74051   0.43720   0.49049   1.000
    O52     O    0.76109   0.34773   0.49301   1.000
    O53     O    0.78162   0.43624   0.49094   1.000
    C54     C    0.25758   0.51808   0.63059   1.000
    O55     O    0.27492   0.51071   0.58373   1.000
    O56     O    0.23373   0.51122   0.58323   1.000
    O57     O    0.25514   0.54006   0.68878   1.000
    C58     C    0.26842   0.48748   0.38910   1.000
    O59     O    0.26390   0.46333   0.33252   1.000
    O60     O    0.28170   0.49278   0.43412   1.000
    O61     O    0.24053   0.49257   0.43630   1.000
    C62     C    0.73117   0.51263   0.61370   1.000
    O63     O    0.73558   0.53691   0.67025   1.000
    O64     O    0.75914   0.50750   0.56653   1.000
    O65     O    0.71796   0.50724   0.56856   1.000
    C66     C    0.99102   0.55266   0.58029   1.000
    O67     O    0.99556   0.59084   0.62763   1.000
    O68     O    0.08144   0.53111   0.55229   1.000
    O69     O    0.90703   0.53284   0.54717   1.000
    C70     C    0.76819   0.60109   0.49551   1.000
    O71     O    0.76179   0.65145   0.49719   1.000
    O72     O    0.78249   0.56276   0.49394   1.000
    O73     O    0.74146   0.56113   0.49603   1.000
    Zr74    Zr   0.99870   0.75109   0.00485   1.000
    Zr75    Zr   0.50136   0.75040   0.99333   1.000
    C76     C    0.98223   0.64945   0.00615   1.000
    O77     O    0.00874   0.68952   0.00397   1.000
    O78     O    0.98862   0.59910   0.00355   1.000
    O79     O    0.96774   0.68788   0.00739   1.000
    C80     C    0.51762   0.85198   0.99429   1.000
    O81     O    0.53220   0.81359   0.99294   1.000
    O82     O    0.49117   0.81191   0.99476   1.000
    O83     O    0.51143   0.90232   0.99531   1.000
    C84     C    0.49292   0.73263   0.87089   1.000
    O85     O    0.49508   0.71061   0.81280   1.000
    O86     O    0.47539   0.73987   0.91800   1.000
    O87     O    0.51660   0.73954   0.91825   1.000
    C88     C    0.24781   0.67572   0.96435   1.000
    O89     O    0.16037   0.70469   0.98036   1.000
    O90     O    0.24884   0.64485   0.91006   1.000
    O91     O    0.33688   0.70447   0.97632   1.000
    C92     C    0.01286   0.73940   0.88917   1.000
    O93     O    0.98778   0.74396   0.93547   1.000
    O94     O    0.02893   0.74447   0.93227   1.000
    O95     O    0.00745   0.71496   0.83267   1.000
    C96     C    0.00774   0.76836   0.13050   1.000
    O97     O    0.00536   0.78993   0.18868   1.000
    O98     O    0.98385   0.76168   0.08237   1.000
    O99     O    0.02504   0.76128   0.08173   1.000
    C100    C    0.75946   0.69908   0.92239   1.000
    O101    O    0.66889   0.72041   0.95006   1.000
    O102    O    0.84321   0.71840   0.95468   1.000
    O103    O    0.75418   0.66085   0.87519   1.000
    C104    C    0.51776   0.64776   0.98692   1.000
    O105    O    0.51200   0.59844   0.99088   1.000
    O106    O    0.53232   0.68691   0.98932   1.000
    O107    O    0.49121   0.68782   0.98914   1.000
    C108    C    0.98218   0.85390   0.00000   1.000
    O109    O    0.96766   0.81474   0.00243   1.000
    O110    O    0.00876   0.81373   0.00121   1.000
    O111    O    0.98807   0.90317   0.99989   1.000
    C112    C    0.48089   0.76214   0.11247   1.000
    O113    O    0.48575   0.78629   0.16904   1.000
    O114    O    0.46786   0.75705   0.06764   1.000
    O115    O    0.50900   0.75758   0.06530   1.000
    C116    C    0.25222   0.82558   0.03644   1.000
    O117    O    0.25120   0.85581   0.09119   1.000
    O118    O    0.33966   0.79668   0.01894   1.000
    O119    O    0.16316   0.79690   0.02300   1.000
    C120    C    0.74060   0.80222   0.08026   1.000
    O121    O    0.74591   0.84054   0.12732   1.000
    O122    O    0.65684   0.78298   0.04679   1.000
    O123    O    0.83118   0.78098   0.05142   1.000
    Zr124   Zr   0.49950   0.25236   0.00377   1.000
    Zr125   Zr   0.00154   0.24906   0.99449   1.000
    C126    C    0.48412   0.35517   0.00000   1.000
    O127    O    0.48999   0.40449   0.99961   1.000
    O128    O    0.46918   0.31607   0.00188   1.000
    O129    O    0.51027   0.31495   0.00094   1.000
    C130    C    0.52044   0.23978   0.88749   1.000
    O131    O    0.53328   0.24500   0.93092   1.000
    O132    O    0.51557   0.21560   0.83095   1.000
    O133    O    0.49216   0.24484   0.93391   1.000
    C134    C    0.01247   0.14614   0.98767   1.000
    O135    O    0.98861   0.18641   0.98998   1.000
    O136    O    0.02969   0.18527   0.99027   1.000
    O137    O    0.00600   0.09687   0.99181   1.000
    C138    C    0.24105   0.30107   0.08043   1.000
    O139    O    0.15714   0.28136   0.04766   1.000
    O140    O    0.24588   0.33942   0.12760   1.000
    O141    O    0.33184   0.28112   0.05069   1.000
    C142    C    0.48202   0.15079   0.00458   1.000
    O143    O    0.48809   0.10041   0.00213   1.000
    O144    O    0.50891   0.19077   0.00287   1.000
    O145    O    0.46790   0.18926   0.00572   1.000
    C146    C    0.75264   0.32572   0.03675   1.000
    O147    O    0.75166   0.35621   0.09141   1.000
    O148    O    0.84000   0.29621   0.01956   1.000
    O149    O    0.66371   0.29752   0.02288   1.000
    C150    C    0.74839   0.17563   0.96431   1.000
    O151    O    0.66103   0.20517   0.98005   1.000
    O152    O    0.83733   0.20386   0.97670   1.000
    O153    O    0.74919   0.14489   0.90992   1.000
    C154    C    0.99264   0.23154   0.87220   1.000
    O155    O    0.01645   0.23828   0.91966   1.000
    O156    O    0.99512   0.20962   0.81410   1.000
    O157    O    0.97529   0.23876   0.91911   1.000
    C158    C    0.01919   0.35064   0.99557   1.000
    O159    O    0.99223   0.31061   0.99579   1.000
    O160    O    0.03325   0.31220   0.99437   1.000
    O161    O    0.01286   0.40101   0.99656   1.000
    C162    C    0.25984   0.20027   0.92107   1.000
    O163    O    0.34380   0.21999   0.95309   1.000
    O164    O    0.16911   0.22028   0.94993   1.000
    O165    O    0.25500   0.16164   0.87421   1.000
    C166    C    0.50754   0.26987   0.12932   1.000
    O167    O    0.48402   0.26316   0.08114   1.000
    O168    O    0.50530   0.29139   0.18758   1.000
    O169    O    0.52520   0.26265   0.08069   1.000
    C170    C    0.98114   0.26144   0.11389   1.000
    O171    O    0.96810   0.25631   0.06882   1.000
    O172    O    0.00924   0.25645   0.06677   1.000
    O173    O    0.98564   0.28551   0.17052   1.000
    Zr174   Zr   0.74891   0.00071   0.50782   1.000
    Zr175   Zr   0.25146   0.99835   0.49443   1.000
    C176    C    0.26777   0.09977   0.49527   1.000
    O177    O    0.26149   0.15016   0.49714   1.000
    O178    O    0.24131   0.05974   0.49605   1.000
    O179    O    0.28234   0.06145   0.49381   1.000
    C180    C    0.26768   0.89587   0.48970   1.000
    O181    O    0.26179   0.84649   0.49385   1.000
    O182    O    0.24120   0.93588   0.49132   1.000
    O183    O    0.28232   0.93495   0.49143   1.000
    C184    C    0.23178   0.01148   0.61393   1.000
    O185    O    0.25961   0.00629   0.56665   1.000
    O186    O    0.23652   0.03616   0.67030   1.000
    O187    O    0.21845   0.00595   0.56894   1.000
    C188    C    0.49059   0.05378   0.57879   1.000
    O189    O    0.49592   0.09196   0.62601   1.000
    O190    O    0.40685   0.03304   0.54643   1.000
    O191    O    0.58127   0.03201   0.55088   1.000
    C192    C    0.75697   0.01923   0.63022   1.000
    O193    O    0.77465   0.01163   0.58322   1.000
    O194    O    0.75472   0.04094   0.68839   1.000
    O195    O    0.73344   0.01214   0.58277   1.000
    C196    C    0.76918   0.98869   0.38868   1.000
    O197    O    0.78229   0.99372   0.43365   1.000
    O198    O    0.74110   0.99352   0.43571   1.000
    O199    O    0.76470   0.96450   0.33209   1.000
    C200    C    0.99772   0.92410   0.46467   1.000
    O201    O    0.99887   0.89346   0.41026   1.000
    O202    O    0.08686   0.95266   0.47697   1.000
    O203    O    0.91040   0.95351   0.48219   1.000
    C204    C    0.73100   0.90002   0.50671   1.000
    O205    O    0.73739   0.84961   0.50481   1.000
    O206    O    0.71703   0.93813   0.50826   1.000
    O207    O    0.75806   0.93971   0.50605   1.000
    C208    C    0.73438   0.10395   0.51337   1.000
    O209    O    0.76025   0.06362   0.51152   1.000
    O210    O    0.71910   0.06462   0.51124   1.000
    O211    O    0.73993   0.15338   0.50935   1.000
    C212    C    0.24251   0.97951   0.37202   1.000
    O213    O    0.26637   0.98690   0.41941   1.000
    O214    O    0.22516   0.98705   0.41908   1.000
    O215    O    0.24494   0.95812   0.31370   1.000
    C216    C    0.50973   0.94810   0.42151   1.000
    O217    O    0.50472   0.90991   0.37421   1.000
    O218    O    0.41904   0.96883   0.45007   1.000
    O219    O    0.59348   0.96788   0.45455   1.000
    C220    C    0.00192   0.07393   0.53873   1.000
    O221    O    0.00077   0.10485   0.59299   1.000
    O222    O    0.08961   0.04485   0.52083   1.000
    O223    O    0.91317   0.04568   0.52608   1.000
loop_
    _geom_bond_atom_site_label_1
    _geom_bond_atom_site_label_2
    _geom_bond_distance
    _geom_bond_site_symmetry_2
    _ccdc_geom_bond_type
    C26    O27       1.11054      .   S
    N12    O27       2.18347      .   S
    C26    O28       0.89740      .   S
    Zr24   O28       1.51304      .   S
    C26    O29       1.01711      .   S
    Zr24   O29       1.37798      .   S
    C30    O31       1.11370      .   S
    N5     O31       2.18945      .   S
    C30    O32       1.80004      .   S
    Zr25   O32       3.27272      .   S
    C30    O33       1.82388      .   S
    Zr24   O33       3.31267      .   S
    C34    O35       1.80038      .   S
    Zr24   O35       3.27312      .   S
    C34    O36       1.82477      .   S
    Zr25   O36       3.31513      .   S
    C34    O37       1.11392      .   S
    N20    O37       2.18981      .   S
    C38    O39       1.83709  1_455   S
    Zr25   O39       3.33057      .   S
    C38    O40       1.10513      .   S
    N4     O40       2.17290  1_655   S
    C38    O41       1.77206      .   S
    Zr24   O41       3.22379      .   S
    C42    O43       1.00816      .   S
    Zr25   O43       1.41249      .   S
    C42    O44       0.92393      .   S
    Zr25   O44       1.50662      .   S
    C42    O45       1.11167      .   S
    N0     O45       2.18758      .   S
    C46    O47       0.88560      .   S
    Zr24   O47       1.50756      .   S
    C46    O48       1.01565      .   S
    Zr24   O48       1.36076      .   S
    C46    O49       1.11151      .   S
    N14    O49       2.18435      .   S
    C50    O51       1.01614      .   S
    Zr25   O51       1.37844      .   S
    C50    O52       1.11082      .   S
    N19    O52       2.18404      .   S
    C50    O53       0.89808      .   S
    Zr25   O53       1.51163      .   S
    C54    O55       0.92078      .   S
    Zr24   O55       1.50471      .   S
    C54    O56       1.00772      .   S
    Zr24   O56       1.40755      .   S
    C54    O57       1.11188      .   S
    N8     O57       2.18649      .   S
    C58    O59       1.10375      .   S
    N16    O59       2.16868      .   S
    C58    O60       0.88553      .   S
    Zr24   O60       1.50493      .   S
    C58    O61       1.01297      .   S
    Zr24   O61       1.36127      .   S
    C62    O63       1.10380      .   S
    N9     O63       2.16908      .   S
    C62    O64       1.01320      .   S
    Zr25   O64       1.36363      .   S
    C62    O65       0.88710      .   S
    Zr25   O65       1.50578      .   S
    C66    O67       1.10477      .   S
    N11    O67       2.17169  1_455   S
    C66    O68       1.83765  1_655   S
    Zr24   O68       3.33190      .   S
    C66    O69       1.77297      .   S
    Zr25   O69       3.22593      .   S
    C70    O71       1.11144      .   S
    N13    O71       2.18424      .   S
    C70    O72       0.88545      .   S
    Zr25   O72       1.50764      .   S
    C70    O73       1.01572      .   S
    Zr25   O73       1.36057      .   S
    C76    O77       1.02136  1_655   S
    Zr74   O77       1.36875  1_655   S
    C76    O78       1.10836      .   S
    N18    O78       2.17494  1_456   S
    C76    O79       0.88984      .   S
    Zr74   O79       1.51686      .   S
    C80    O81       0.88909      .   S
    Zr75   O81       1.50789      .   S
    C80    O82       1.01484      .   S
    Zr75   O82       1.36590      .   S
    C80    O83       1.11292      .   S
    N22    O83       2.19254  1_545   S
    C84    O85       1.11023      .   S
    N5     O85       2.18485      .   S
    C84    O86       0.92658      .   S
    Zr75   O86       1.50467      .   S
    C84    O87       1.00627      .   S
    Zr75   O87       1.41571      .   S
    C88    O89       1.79808      .   S
    Zr74   O89       3.27022  1_654   S
    C88    O90       1.11338      .   S
    N8     O90       2.18885      .   S
    C88    O91       1.82508      .   S
    Zr75   O91       3.31649      .   S
    C92    O93       0.97333  1_455   S
    Zr74   O93       1.31851  1_554   S
    C92    O94       0.87086      .   S
    Zr74   O94       1.45423  1_654   S
    C92    O95       1.10620      .   S
    N11    O95       2.16114      .   S
    C96    O97       1.10963      .   S
    N17    O97       2.18339      .   S
    C96    O98       1.02103  1_455   S
    Zr74   O98       1.45948      .   S
    C96    O99       0.95405      .   S
    Zr74   O99       1.53503  1_655   S
    C100   O101      1.83795      .   S
    Zr75   O101      3.33364      .   S
    C100   O102      1.76168      .   S
    Zr74   O102      3.20176  1_554   S
    C100   O103      1.10535      .   S
    N9     O103      2.17321      .   S
    C104   O105      1.10823      .   S
    N1     O105      2.17701      .   S
    C104   O106      0.89641      .   S
    Zr75   O106      1.51321      .   S
    C104   O107      1.01739      .   S
    Zr75   O107      1.37674      .   S
    C108   O109      0.91312      .   S
    Zr74   O109      1.54029      .   S
    C108   O110      1.03182  1_655   S
    Zr74   O110      1.40637  1_655   S
    C108   O111      1.09027  1_554   S
    N6     O111      2.14284  1_545   S
    C112   O113      1.10431      .   S
    N3     O113      2.16974      .   S
    C112   O114      0.88086      .   S
    Zr75   O114      1.50758  1_556   S
    C112   O115      1.01537      .   S
    Zr75   O115      1.35594  1_556   S
    C116   O117      1.11442      .   S
    N15    O117      2.19077      .   S
    C116   O118      1.79968      .   S
    Zr75   O118      3.27097  1_556   S
    C116   O119      1.82715      .   S
    Zr74   O119      3.31698  1_655   S
    C120   O121      1.10487      .   S
    N23    O121      2.17237      .   S
    C120   O122      1.76899      .   S
    Zr75   O122      3.21977  1_556   S
    C120   O123      1.84227      .   S
    Zr74   O123      3.34439      .   S
    C126   O127      1.09239  1_554   S
    N1     O127      2.14870      .   S
    C126   O128      0.91195      .   S
    Zr124  O128      1.53356      .   S
    C126   O129      1.02758      .   S
    Zr124  O129      1.40313      .   S
    C130   O131      0.85427      .   S
    Zr124  O131      1.48377  1_554   S
    C130   O132      1.10397      .   S
    N7     O132      2.16911      .   S
    C130   O133      1.00447      .   S
    Zr124  O133      1.31488  1_554   S
    C134   O135      0.99598  1_455   S
    Zr125  O135      1.38530  1_455   S
    C134   O136      0.91242      .   S
    Zr125  O136      1.49763      .   S
    C134   O137      1.10892      .   S
    N6     O137      2.17018  1_655   S
    C138   O139      1.76877      .   S
    Zr125  O139      3.21944  1_556   S
    C138   O140      1.10539      .   S
    N16    O140      2.17309      .   S
    C138   O141      1.84409      .   S
    Zr124  O141      3.34439      .   S
    C142   O143      1.10863      .   S
    N22    O143      2.17602  1_556   S
    C142   O144      1.02162      .   S
    Zr124  O144      1.36757      .   S
    C142   O145      0.88884      .   S
    Zr124  O145      1.51711      .   S
    C146   O147      1.11541      .   S
    N0     O147      2.19240      .   S
    C146   O148      1.80218      .   S
    Zr125  O148      3.27338  1_456   S
    C146   O149      1.82259      .   S
    Zr124  O149      3.31001      .   S
    C150   O151      1.80062      .   S
    Zr124  O151      3.27244  1_554   S
    C150   O152      1.81996      .   S
    Zr125  O152      3.30822  1_455   S
    C150   O153      1.11366      .   S
    N10    O153      2.18928      .   S
    C154   O155      1.00917  1_655   S
    Zr125  O155      1.41027      .   S
    C154   O156      1.10999      .   S
    N21    O156      2.18421      .   S
    C154   O157      0.92192      .   S
    Zr125  O157      1.50776  1_455   S
    C158   O159      1.01814  1_455   S
    Zr125  O159      1.36501  1_455   S
    C158   O160      0.88747      .   S
    Zr125  O160      1.51253      .   S
    C158   O161      1.11400      .   S
    N18    O161      2.19535      .   S
    C162   O163      1.76496      .   S
    Zr124  O163      3.20729  1_554   S
    C162   O164      1.83969      .   S
    Zr125  O164      3.33452      .   S
    C162   O165      1.10541      .   S
    N2     O165      2.17342      .   S
    C166   O167      1.01862      .   S
    Zr124  O167      1.45842      .   S
    C166   O168      1.11049      .   S
    N20    O168      2.18531      .   S
    C166   O169      0.95386      .   S
    Zr124  O169      1.53126      .   S
    C170   O171      0.88522      .   S
    Zr125  O171      1.50647  1_456   S
    C170   O172      1.01390  1_655   S
    Zr125  O172      1.36140  1_556   S
    C170   O173      1.10389      .   S
    N4     O173      2.16900      .   S
    C176   O177      1.11138      .   S
    N14    O177      2.18422      .   S
    C176   O178      1.01512      .   S
    Zr175  O178      1.36282  1_565   S
    C176   O179      0.88725      .   S
    Zr175  O179      1.50711  1_565   S
    C180   O181      1.11054      .   S
    N12    O181      2.18349      .   S
    C180   O182      1.01753      .   S
    Zr175  O182      1.37766      .   S
    C180   O183      0.89713      .   S
    Zr175  O183      1.51351      .   S
    C184   O185      1.01342      .   S
    Zr175  O185      1.36084  1_565   S
    C184   O186      1.10406      .   S
    N2     O186      2.16940      .   S
    C184   O187      0.88495      .   S
    Zr175  O187      1.50569  1_565   S
    C188   O189      1.10503      .   S
    N7     O189      2.17271      .   S
    C188   O190      1.76709      .   S
    Zr175  O190      3.21709  1_565   S
    C188   O191      1.84292      .   S
    Zr174  O191      3.33973      .   S
    C192   O193      0.92548      .   S
    Zr174  O193      1.50382      .   S
    C192   O194      1.11007      .   S
    N10    O194      2.18438      .   S
    C192   O195      1.00605      .   S
    Zr174  O195      1.41380      .   S
    C196   O197      0.88405      .   S
    Zr174  O197      1.50372  1_545   S
    C196   O198      1.01233      .   S
    Zr174  O198      1.35908  1_545   S
    C196   O199      1.10396      .   S
    N23    O199      2.16948      .   S
    C200   O201      1.11285      .   S
    N17    O201      2.18798  1_455   S
    C200   O202      1.82573  1_655   S
    Zr175  O202      3.31775      .   S
    C200   O203      1.80118      .   S
    Zr174  O203      3.27325  1_545   S
    C204   O205      1.11173      .   S
    N13    O205      2.18453      .   S
    C204   O206      0.87902      .   S
    Zr174  O206      1.50350  1_545   S
    C204   O207      1.01412      .   S
    Zr174  O207      1.35098  1_545   S
    C208   O209      1.01687      .   S
    Zr174  O209      1.38845      .   S
    C208   O210      0.90513      .   S
    Zr174  O210      1.51450      .   S
    C208   O211      1.11052      .   S
    N19    O211      2.18379      .   S
    C212   O213      1.00812      .   S
    Zr175  O213      1.41311      .   S
    C212   O214      0.92451      .   S
    Zr175  O214      1.50664      .   S
    C212   O215      1.11099      .   S
    N15    O215      2.18624      .   S
    C216   O217      1.10556      .   S
    N3     O217      2.17381      .   S
    C216   O218      1.84075      .   S
    Zr175  O218      3.33652      .   S
    C216   O219      1.76799      .   S
    Zr174  O219      3.21865  1_545   S
    C220   O221      1.11330      .   S
    N21    O221      2.18867  1_655   S
    C220   O222      1.80611      .   S
    Zr175  O222      3.27589  1_565   S
    C220   O223      1.81712  1_455   S
    Zr174  O223      3.30846      .   S
