# CIF file generated by openbabel 2.4.90, see http://openbabel.sf.net
data_I
_chemical_name_common ''
_cell_length_a 19.226
_cell_length_b 22.029
_cell_length_c 18.973
_cell_angle_alpha 101.661
_cell_angle_beta 87.803
_cell_angle_gamma 90.678
_space_group_name_H-M_alt 'P 1'
_space_group_name_Hall 'P 1'
loop_
    _symmetry_equiv_pos_as_xyz
    x,y,z
loop_
    _atom_site_label
    _atom_site_type_symbol
    _atom_site_fract_x
    _atom_site_fract_y
    _atom_site_fract_z
    _atom_site_occupancy
    Zr0     Zr   0.39325   0.25180   0.00753   1.000
    Zr1     Zr   0.39499   0.74923   0.99427   1.000
    Zr2     Zr   0.89528   0.24846   0.99503   1.000
    Zr3     Zr   0.89236   0.75005   0.00970   1.000
    Zr4     Zr   0.14225   0.49956   0.50946   1.000
    Zr5     Zr   0.14509   0.99718   0.49553   1.000
    Zr6     Zr   0.64478   0.49886   0.49472   1.000
    Zr7     Zr   0.64247   0.00000   0.50839   1.000
    Zr8     Zr   0.10780   0.24966   0.99396   1.000
    Zr9     Zr   0.10505   0.75213   0.00000   1.000
    Zr10    Zr   0.60575   0.25293   0.00000   1.000
    Zr11    Zr   0.60772   0.75158   0.99240   1.000
    Zr12    Zr   0.35783   0.99952   0.49333   1.000
    Zr13    Zr   0.35497   0.50084   0.50760   1.000
    Zr14    Zr   0.85535   0.00142   0.50725   1.000
    Zr15    Zr   0.85754   0.50061   0.49357   1.000
    Zr16    Zr   0.51832   0.23302   0.86632   1.000
    Zr17    Zr   0.49433   0.72603   0.84974   1.000
    Zr18    Zr   0.99428   0.22500   0.85104   1.000
    Zr19    Zr   0.00000   0.73252   0.86802   1.000
    Zr20    Zr   0.49254   0.06879   0.59438   1.000
    Zr21    Zr   0.50174   0.58661   0.55658   1.000
    Zr22    Zr   0.00000   0.08568   0.55802   1.000
    Zr23    Zr   0.99276   0.56766   0.59595   1.000
    Zr24    Zr   0.48463   0.13259   0.00430   1.000
    Zr25    Zr   0.51523   0.62996   0.98851   1.000
    Zr26    Zr   0.00000   0.12836   0.98936   1.000
    Zr27    Zr   0.98496   0.63127   0.00592   1.000
    Zr28    Zr   0.23382   0.01843   0.63504   1.000
    Zr29    Zr   0.25599   0.52466   0.65190   1.000
    Zr30    Zr   0.75545   0.02571   0.65139   1.000
    Zr31    Zr   0.73306   0.51943   0.63485   1.000
    Zr32    Zr   0.25812   0.18508   0.90564   1.000
    Zr33    Zr   0.24804   0.66401   0.94506   1.000
    Zr34    Zr   0.74850   0.16393   0.94498   1.000
    Zr35    Zr   0.75743   0.68403   0.90682   1.000
    Zr36    Zr   0.26508   0.11796   0.49560   1.000
    Zr37    Zr   0.23574   0.62071   0.51277   1.000
    Zr38    Zr   0.73685   0.12175   0.51190   1.000
    Zr39    Zr   0.76548   0.61928   0.49578   1.000
    Zr40    Zr   0.98310   0.26814   0.13508   1.000
    Zr41    Zr   0.00623   0.77477   0.15169   1.000
    Zr42    Zr   0.50611   0.27629   0.15052   1.000
    Zr43    Zr   0.48301   0.76889   0.13365   1.000
    Zr44    Zr   0.00697   0.43226   0.40731   1.000
    Zr45    Zr   0.99798   0.91246   0.44536   1.000
    Zr46    Zr   0.49813   0.41338   0.44476   1.000
    Zr47    Zr   0.50789   0.93308   0.40590   1.000
    Zr48    Zr   0.01650   0.36885   0.99701   1.000
    Zr49    Zr   0.98482   0.87169   0.00000   1.000
    Zr50    Zr   0.48673   0.37296   0.00000   1.000
    Zr51    Zr   0.51492   0.87015   0.99556   1.000
    Zr52    Zr   0.26645   0.48074   0.36790   1.000
    Zr53    Zr   0.24411   0.97312   0.35081   1.000
    Zr54    Zr   0.74429   0.47518   0.35055   1.000
    Zr55    Zr   0.76725   0.98194   0.36751   1.000
    Zr56    Zr   0.24282   0.31618   0.09600   1.000
    Zr57    Zr   0.25200   0.83707   0.05593   1.000
    Zr58    Zr   0.75249   0.33729   0.05625   1.000
    Zr59    Zr   0.74262   0.81730   0.09570   1.000
    Zr60    Zr   0.23406   0.38066   0.50692   1.000
    Zr61    Zr   0.26514   0.87806   0.49126   1.000
    Zr62    Zr   0.76421   0.37932   0.49039   1.000
    Zr63    Zr   0.73370   0.88178   0.50632   1.000
    Zr64    Zr   0.46325   0.24308   0.90628   1.000
    Zr65    Zr   0.43374   0.73841   0.87950   1.000
    Zr66    Zr   0.93341   0.23737   0.88006   1.000
    Zr67    Zr   0.96103   0.74182   0.90768   1.000
    Zr68    Zr   0.05021   0.23226   0.88550   1.000
    Zr69    Zr   0.07755   0.74386   0.89180   1.000
    Zr70    Zr   0.57975   0.24323   0.88986   1.000
    Zr71    Zr   0.55070   0.73344   0.88342   1.000
    Zr72    Zr   0.43169   0.05297   0.57410   1.000
    Zr73    Zr   0.44362   0.56744   0.53005   1.000
    Zr74    Zr   0.94453   0.06689   0.53081   1.000
    Zr75    Zr   0.93228   0.55201   0.57430   1.000
    Zr76    Zr   0.06122   0.06922   0.52735   1.000
    Zr77    Zr   0.04801   0.53830   0.57063   1.000
    Zr78    Zr   0.54754   0.03957   0.56788   1.000
    Zr79    Zr   0.56034   0.57063   0.52520   1.000
    Zr80    Zr   0.42291   0.15443   0.01239   1.000
    Zr81    Zr   0.46093   0.66149   0.98446   1.000
    Zr82    Zr   0.96067   0.16020   0.98516   1.000
    Zr83    Zr   0.92323   0.65300   0.01510   1.000
    Zr84    Zr   0.07675   0.14985   0.98850   1.000
    Zr85    Zr   0.03850   0.66409   0.99744   1.000
    Zr86    Zr   0.53851   0.16535   0.99706   1.000
    Zr87    Zr   0.57712   0.65184   0.98780   1.000
    Zr88    Zr   0.17249   0.00781   0.61140   1.000
    Zr89    Zr   0.19998   0.51748   0.61700   1.000
    Zr90    Zr   0.69932   0.01873   0.61729   1.000
    Zr91    Zr   0.67189   0.50905   0.61069   1.000
    Zr92    Zr   0.28904   0.00819   0.59534   1.000
    Zr93    Zr   0.31678   0.51210   0.62286   1.000
    Zr94    Zr   0.81615   0.01326   0.62197   1.000
    Zr95    Zr   0.78857   0.50941   0.59557   1.000
    Zr96    Zr   0.20264   0.21343   0.93218   1.000
    Zr97    Zr   0.18931   0.68035   0.97580   1.000
    Zr98    Zr   0.68997   0.18118   0.97564   1.000
    Zr99    Zr   0.70282   0.71456   0.93186   1.000
    Zr100   Zr   0.31877   0.20229   0.92540   1.000
    Zr101   Zr   0.30607   0.68281   0.97220   1.000
    Zr102   Zr   0.80670   0.18177   0.97232   1.000
    Zr103   Zr   0.81812   0.69866   0.92850   1.000
    Zr104   Zr   0.21138   0.08503   0.50296   1.000
    Zr105   Zr   0.17376   0.59900   0.51270   1.000
    Zr106   Zr   0.67501   0.09973   0.51241   1.000
    Zr107   Zr   0.71180   0.58633   0.50316   1.000
    Zr108   Zr   0.32686   0.09632   0.48724   1.000
    Zr109   Zr   0.28978   0.58902   0.51742   1.000
    Zr110   Zr   0.79128   0.09036   0.51580   1.000
    Zr111   Zr   0.82729   0.59767   0.48759   1.000
    Zr112   Zr   0.03846   0.25809   0.09562   1.000
    Zr113   Zr   0.06692   0.76250   0.12219   1.000
    Zr114   Zr   0.56671   0.26408   0.12072   1.000
    Zr115   Zr   0.53802   0.75972   0.09347   1.000
    Zr116   Zr   0.44979   0.26926   0.11673   1.000
    Zr117   Zr   0.42163   0.75781   0.11029   1.000
    Zr118   Zr   0.92186   0.25810   0.11098   1.000
    Zr119   Zr   0.95007   0.76780   0.11761   1.000
    Zr120   Zr   0.06749   0.44791   0.42877   1.000
    Zr121   Zr   0.05600   0.93101   0.47270   1.000
    Zr122   Zr   0.55602   0.43225   0.47214   1.000
    Zr123   Zr   0.56862   0.94924   0.42630   1.000
    Zr124   Zr   0.43930   0.42928   0.47561   1.000
    Zr125   Zr   0.45267   0.96199   0.43234   1.000
    Zr126   Zr   0.95181   0.46180   0.43255   1.000
    Zr127   Zr   0.93918   0.92884   0.47594   1.000
    Zr128   Zr   0.07835   0.34729   0.98971   1.000
    Zr129   Zr   0.03891   0.83995   0.00000   1.000
    Zr130   Zr   0.54090   0.34122   0.00000   1.000
    Zr131   Zr   0.57671   0.84847   0.98731   1.000
    Zr132   Zr   0.42473   0.35134   0.00000   1.000
    Zr133   Zr   0.46122   0.83731   0.00000   1.000
    Zr134   Zr   0.96274   0.33577   0.00000   1.000
    Zr135   Zr   0.92281   0.85008   0.00000   1.000
    Zr136   Zr   0.32770   0.49106   0.39190   1.000
    Zr137   Zr   0.30018   0.98094   0.38505   1.000
    Zr138   Zr   0.80025   0.48241   0.38497   1.000
    Zr139   Zr   0.82845   0.99216   0.39162   1.000
    Zr140   Zr   0.21110   0.49064   0.40749   1.000
    Zr141   Zr   0.18324   0.98449   0.38019   1.000
    Zr142   Zr   0.68348   0.48765   0.37970   1.000
    Zr143   Zr   0.71183   0.99196   0.40691   1.000
    Zr144   Zr   0.29825   0.28818   0.06870   1.000
    Zr145   Zr   0.31068   0.82107   0.02486   1.000
    Zr146   Zr   0.81105   0.32025   0.02550   1.000
    Zr147   Zr   0.79727   0.78674   0.07088   1.000
    Zr148   Zr   0.18208   0.29886   0.07660   1.000
    Zr149   Zr   0.19397   0.81861   0.02853   1.000
    Zr150   Zr   0.69437   0.31962   0.02850   1.000
    Zr151   Zr   0.68190   0.80260   0.07420   1.000
    Zr152   Zr   0.28782   0.41355   0.49961   1.000
    Zr153   Zr   0.32705   0.89989   0.49047   1.000
    Zr154   Zr   0.82606   0.40133   0.49040   1.000
    Zr155   Zr   0.78733   0.91472   0.49866   1.000
    Zr156   Zr   0.17233   0.40243   0.51542   1.000
    Zr157   Zr   0.21085   0.90966   0.48738   1.000
    Zr158   Zr   0.70998   0.41075   0.48565   1.000
    Zr159   Zr   0.67198   0.90355   0.51516   1.000
    O160    O    0.95381   0.86088   0.00000   1.000
    O161    O    0.90758   0.80006   0.00485   1.000
    O162    O    0.45573   0.36215   0.00000   1.000
    O163    O    0.51382   0.35709   0.00000   1.000
    O164    O    0.01187   0.85582   0.00000   1.000
    O165    O    0.92901   0.29211   0.99752   1.000
    O166    O    0.98962   0.35231   0.99851   1.000
    O167    O    0.42810   0.79327   0.99714   1.000
    O168    O    0.48807   0.85373   0.99778   1.000
    O169    O    0.40899   0.30157   0.00377   1.000
    O170    O    0.57332   0.29707   0.00000   1.000
    O171    O    0.07198   0.79604   0.00000   1.000
    O172    O    0.14951   0.78537   0.01427   1.000
    O173    O    0.08599   0.75731   0.06109   1.000
    O174    O    0.09130   0.74799   0.94590   1.000
    O175    O    0.14718   0.71624   0.98790   1.000
    O176    O    0.07178   0.70810   0.99872   1.000
    O177    O    0.65006   0.28628   0.01425   1.000
    O178    O    0.58623   0.25850   0.06036   1.000
    O179    O    0.59275   0.24808   0.94493   1.000
    O180    O    0.64786   0.21705   0.98782   1.000
    O181    O    0.57213   0.20914   0.99853   1.000
    O182    O    0.45377   0.14351   0.00835   1.000
    O183    O    0.51157   0.14897   0.00068   1.000
    O184    O    0.95410   0.64213   0.01051   1.000
    O185    O    0.01173   0.64768   0.00168   1.000
    O186    O    0.40808   0.20311   0.00996   1.000
    O187    O    0.34575   0.26999   0.03812   1.000
    O188    O    0.42152   0.26053   0.06213   1.000
    O189    O    0.42825   0.24744   0.95691   1.000
    O190    O    0.35601   0.22704   0.96647   1.000
    O191    O    0.90779   0.70152   0.01240   1.000
    O192    O    0.84481   0.76839   0.04029   1.000
    O193    O    0.92121   0.75892   0.06366   1.000
    O194    O    0.92670   0.74594   0.95869   1.000
    O195    O    0.85524   0.72435   0.96910   1.000
    O196    O    0.28134   0.82907   0.04040   1.000
    O197    O    0.35284   0.78515   0.00957   1.000
    O198    O    0.78177   0.32877   0.04088   1.000
    O199    O    0.85317   0.28435   0.01027   1.000
    O200    O    0.72343   0.32846   0.04238   1.000
    O201    O    0.22298   0.82784   0.04223   1.000
    O202    O    0.27053   0.30218   0.08235   1.000
    O203    O    0.76994   0.80202   0.08329   1.000
    O204    O    0.71226   0.80995   0.08495   1.000
    O205    O    0.64481   0.77709   0.03330   1.000
    O206    O    0.21245   0.30752   0.08630   1.000
    O207    O    0.14494   0.27425   0.03528   1.000
    O208    O    0.51052   0.76430   0.11356   1.000
    O209    O    0.57287   0.75565   0.04294   1.000
    O210    O    0.01078   0.26311   0.11535   1.000
    O211    O    0.07313   0.25387   0.04479   1.000
    O212    O    0.45232   0.76335   0.12197   1.000
    O213    O    0.40831   0.75352   0.05228   1.000
    O214    O    0.95248   0.26312   0.12303   1.000
    O215    O    0.90857   0.25328   0.05300   1.000
    O216    O    0.47795   0.27277   0.13363   1.000
    O217    O    0.97815   0.77129   0.13465   1.000
    O218    O    0.53641   0.27018   0.13562   1.000
    O219    O    0.03658   0.76864   0.13694   1.000
    O220    O    0.71388   0.48142   0.36513   1.000
    O221    O    0.77227   0.47880   0.36776   1.000
    O222    O    0.21367   0.97880   0.36550   1.000
    O223    O    0.27215   0.97703   0.36793   1.000
    O224    O    0.79785   0.98705   0.37957   1.000
    O225    O    0.73954   0.98695   0.38721   1.000
    O226    O    0.29708   0.48590   0.37990   1.000
    O227    O    0.23878   0.48569   0.38770   1.000
    O228    O    0.66413   0.49325   0.43721   1.000
    O229    O    0.16416   0.99083   0.43786   1.000
    O230    O    0.82889   0.49151   0.43927   1.000
    O231    O    0.32900   0.99023   0.43919   1.000
    O232    O    0.84190   0.99679   0.44944   1.000
    O233    O    0.34134   0.49595   0.44975   1.000
    O234    O    0.53826   0.94116   0.41610   1.000
    O235    O    0.48028   0.94753   0.41912   1.000
    O236    O    0.67715   0.99598   0.45765   1.000
    O237    O    0.03723   0.44009   0.41804   1.000
    O238    O    0.97939   0.44703   0.41993   1.000
    O239    O    0.17668   0.49510   0.45848   1.000
    O240    O    0.60555   0.97462   0.46735   1.000
    O241    O    0.10487   0.47374   0.46912   1.000
    O242    O    0.40525   0.98075   0.46284   1.000
    O243    O    0.90467   0.48121   0.46306   1.000
    O244    O    0.52707   0.42281   0.45845   1.000
    O245    O    0.46871   0.42133   0.46019   1.000
    O246    O    0.02699   0.92174   0.45903   1.000
    O247    O    0.96858   0.92065   0.46065   1.000
    O248    O    0.60040   0.46555   0.48343   1.000
    O249    O    0.10054   0.96409   0.48412   1.000
    O250    O    0.39714   0.46506   0.49161   1.000
    O251    O    0.89727   0.96513   0.49160   1.000
    O252    O    0.73710   0.39503   0.48802   1.000
    O253    O    0.67738   0.45480   0.49019   1.000
    O254    O    0.34235   0.04792   0.49029   1.000
    O255    O    0.29597   0.10714   0.49142   1.000
    O256    O    0.23800   0.89386   0.48932   1.000
    O257    O    0.17797   0.95342   0.49146   1.000
    O258    O    0.84241   0.54914   0.49058   1.000
    O259    O    0.79638   0.60847   0.49169   1.000
    O260    O    0.79514   0.39032   0.49039   1.000
    O261    O    0.84180   0.45097   0.49199   1.000
    O262    O    0.29610   0.88898   0.49087   1.000
    O263    O    0.34244   0.94970   0.49190   1.000
    O264    O    0.39476   0.02624   0.53372   1.000
    O265    O    0.32343   0.00385   0.54434   1.000
    O266    O    0.89491   0.52631   0.53394   1.000
    O267    O    0.82305   0.50501   0.54457   1.000
    O268    O    0.67829   0.54259   0.49894   1.000
    O269    O    0.60256   0.53474   0.50996   1.000
    O270    O    0.65834   0.50395   0.55271   1.000
    O271    O    0.17823   0.04110   0.49925   1.000
    O272    O    0.10315   0.03320   0.51144   1.000
    O273    O    0.15879   0.00249   0.55347   1.000
    O274    O    0.23823   0.10149   0.49928   1.000
    O275    O    0.73864   0.60280   0.49947   1.000
    O276    O    0.76051   0.89825   0.50249   1.000
    O277    O    0.82134   0.95807   0.50296   1.000
    O278    O    0.26094   0.39711   0.50327   1.000
    O279    O    0.32140   0.45719   0.50361   1.000
    O280    O    0.70284   0.89266   0.51074   1.000
    O281    O    0.20319   0.39155   0.51117   1.000
    O282    O    0.82332   0.04589   0.51153   1.000
    O283    O    0.89994   0.03416   0.51903   1.000
    O284    O    0.83575   0.00734   0.56461   1.000
    O285    O    0.32238   0.54493   0.51251   1.000
    O286    O    0.39930   0.53414   0.51883   1.000
    O287    O    0.33588   0.50647   0.56523   1.000
    O288    O    0.65874   0.04986   0.51040   1.000
    O289    O    0.65722   0.95177   0.51178   1.000
    O290    O    0.59500   0.01979   0.53814   1.000
    O291    O    0.67089   0.00937   0.56284   1.000
    O292    O    0.15801   0.54928   0.51108   1.000
    O293    O    0.15729   0.45100   0.51244   1.000
    O294    O    0.09513   0.51893   0.54004   1.000
    O295    O    0.17112   0.50852   0.56323   1.000
    O296    O    0.70593   0.11074   0.51216   1.000
    O297    O    0.76406   0.10606   0.51385   1.000
    O298    O    0.20475   0.60985   0.51274   1.000
    O299    O    0.26276   0.60486   0.51510   1.000
    O300    O    0.53104   0.57862   0.54089   1.000
    O301    O    0.03061   0.07745   0.54268   1.000
    O302    O    0.47268   0.57703   0.54331   1.000
    O303    O    0.97226   0.07628   0.54442   1.000
    O304    O    0.52004   0.05418   0.58113   1.000
    O305    O    0.02038   0.55298   0.58329   1.000
    O306    O    0.46211   0.06088   0.58424   1.000
    O307    O    0.96252   0.55983   0.58513   1.000
    O308    O    0.26143   0.01331   0.61519   1.000
    O309    O    0.76082   0.51442   0.61521   1.000
    O310    O    0.70248   0.51424   0.62277   1.000
    O311    O    0.20316   0.01312   0.62322   1.000
    O312    O    0.22799   0.52107   0.63445   1.000
    O313    O    0.72739   0.02222   0.63434   1.000
    O314    O    0.78580   0.01948   0.63668   1.000
    O315    O    0.28638   0.51838   0.63738   1.000
    O316    O    0.46403   0.73222   0.86462   1.000
    O317    O    0.52251   0.72973   0.86658   1.000
    O318    O    0.96385   0.23118   0.86555   1.000
    O319    O    0.02225   0.22863   0.86827   1.000
    O320    O    0.54903   0.23812   0.87809   1.000
    O321    O    0.49079   0.23805   0.88630   1.000
    O322    O    0.03878   0.73819   0.87991   1.000
    O323    O    0.98052   0.73717   0.88785   1.000
    O324    O    0.41436   0.74382   0.93689   1.000
    O325    O    0.91435   0.24291   0.93755   1.000
    O326    O    0.57921   0.74251   0.93791   1.000
    O327    O    0.07901   0.24096   0.93973   1.000
    O328    O    0.28844   0.19369   0.91552   1.000
    O329    O    0.23038   0.19926   0.91891   1.000
    O330    O    0.78778   0.69135   0.91766   1.000
    O331    O    0.73013   0.69930   0.91934   1.000
    O332    O    0.65527   0.73307   0.96213   1.000
    O333    O    0.15522   0.23154   0.96307   1.000
    O334    O    0.77760   0.17285   0.95865   1.000
    O335    O    0.71923   0.17256   0.96031   1.000
    O336    O    0.27705   0.67341   0.95863   1.000
    O337    O    0.21868   0.67218   0.96043   1.000
    O338    O    0.35053   0.71602   0.98324   1.000
    O339    O    0.85099   0.21512   0.98368   1.000
    O340    O    0.48808   0.64573   0.98648   1.000
    O341    O    0.42796   0.70536   0.98937   1.000
    O342    O    0.98033   0.14428   0.98726   1.000
    O343    O    0.92797   0.20433   0.99010   1.000
    O344    O    0.59222   0.80002   0.98986   1.000
    O345    O    0.54582   0.85931   0.99144   1.000
    O346    O    0.54617   0.64090   0.98816   1.000
    O347    O    0.59242   0.70171   0.99010   1.000
    O348    O    0.03838   0.13910   0.98893   1.000
    O349    O    0.09228   0.19975   0.99123   1.000
    O350    O    0.09308   0.29847   0.99184   1.000
    O351    O    0.04742   0.35807   0.99336   1.000
    O352    O    0.49950   0.25236   0.00377   1.000
    O353    O    0.50136   0.75040   0.99333   1.000
    O354    O    0.00154   0.24906   0.99449   1.000
    O355    O    0.99870   0.75109   0.00485   1.000
    O356    O    0.24861   0.50020   0.50853   1.000
    O357    O    0.25146   0.99835   0.49443   1.000
    O358    O    0.75116   0.49973   0.49415   1.000
    O359    O    0.74891   0.00071   0.50782   1.000
    N360    N    0.74949   0.41490   0.19957   1.000
    O361    O    0.75068   0.38671   0.14606   1.000
    O362    O    0.74772   0.43810   0.25528   1.000
    N363    N    0.50108   0.50146   0.99842   1.000
    O364    O    0.50624   0.54911   0.99484   1.000
    O365    O    0.49586   0.45381   0.99921   1.000
    N366    N    0.24558   0.08798   0.77969   1.000
    O367    O    0.25016   0.12302   0.82734   1.000
    O368    O    0.24125   0.06084   0.72667   1.000
    N369    N    0.49504   0.83708   0.27888   1.000
    O370    O    0.49062   0.81044   0.22561   1.000
    O371    O    0.49972   0.87171   0.32690   1.000
    N372    N    0.99428   0.33616   0.28045   1.000
    O373    O    0.99014   0.30957   0.22715   1.000
    O374    O    0.99889   0.37081   0.32844   1.000
    N375    N    0.49876   0.66515   0.69916   1.000
    O376    O    0.49724   0.68859   0.75470   1.000
    O377    O    0.49993   0.63663   0.64591   1.000
    N378    N    0.99906   0.00003   0.99955   1.000
    O379    O    0.99395   0.95244   0.99978   1.000
    O380    O    0.99953   0.04761   0.99594   1.000
    N381    N    0.50623   0.16476   0.72118   1.000
    O382    O    0.51070   0.19143   0.77440   1.000
    O383    O    0.50126   0.13014   0.67323   1.000
    N384    N    0.25104   0.58546   0.80254   1.000
    O385    O    0.24988   0.61398   0.85577   1.000
    O386    O    0.25270   0.56204   0.74698   1.000
    N387    N    0.74410   0.58795   0.78004   1.000
    O388    O    0.74890   0.62262   0.82799   1.000
    O389    O    0.73999   0.56119   0.72680   1.000
    N390    N    0.75097   0.08580   0.80220   1.000
    O391    O    0.74999   0.11415   0.85553   1.000
    O392    O    0.75247   0.06264   0.74657   1.000
    N393    N    0.00408   0.66365   0.72298   1.000
    O394    O    0.00011   0.62901   0.67496   1.000
    O395    O    0.00204   0.69052   0.77617   1.000
    N396    N    0.25055   0.74939   0.50205   1.000
    O397    O    0.25589   0.79711   0.49799   1.000
    O398    O    0.24516   0.70166   0.50609   1.000
    N399    N    0.74959   0.75050   0.50082   1.000
    O400    O    0.74377   0.79921   0.50291   1.000
    O401    O    0.75540   0.70180   0.49887   1.000
    N402    N    0.24953   0.24929   0.50117   1.000
    O403    O    0.25521   0.20056   0.49902   1.000
    O404    O    0.24387   0.29804   0.50337   1.000
    N405    N    0.24903   0.91393   0.19957   1.000
    O406    O    0.25018   0.88603   0.14594   1.000
    O407    O    0.24738   0.93673   0.25538   1.000
    N408    N    0.25523   0.41249   0.22268   1.000
    O409    O    0.25938   0.43917   0.27594   1.000
    O410    O    0.25072   0.37776   0.17476   1.000
    N411    N    0.00131   0.83456   0.30251   1.000
    O412    O    0.00003   0.86282   0.35586   1.000
    O413    O    0.00299   0.81150   0.24687   1.000
    N414    N    0.00078   0.50006   0.99703   1.000
    O415    O    0.99500   0.54875   0.00095   1.000
    O416    O    0.00653   0.45137   0.99755   1.000
    N417    N    0.75042   0.25059   0.50133   1.000
    O418    O    0.75543   0.29834   0.49721   1.000
    O419    O    0.74547   0.20281   0.50534   1.000
    N420    N    0.50147   0.33587   0.30157   1.000
    O421    O    0.50307   0.31290   0.24584   1.000
    O422    O    0.50019   0.36400   0.35504   1.000
    N423    N    0.99926   0.16431   0.70045   1.000
    O424    O    0.99760   0.18770   0.75599   1.000
    O425    O    0.99963   0.13577   0.64725   1.000
    N426    N    0.49968   0.00134   0.99613   1.000
    O427    O    0.50523   0.95266   0.99633   1.000
    O428    O    0.49417   0.05004   0.99967   1.000
    N429    N    0.75606   0.91360   0.22223   1.000
    O430    O    0.76023   0.94031   0.27550   1.000
    O431    O    0.75122   0.87887   0.17438   1.000
loop_
    _geom_bond_atom_site_label_1
    _geom_bond_atom_site_label_2
    _geom_bond_distance
    _geom_bond_site_symmetry_2
    _ccdc_geom_bond_type
    Zr135  O160      0.63928      .   S
    Zr49   O160      0.63928      .   S
    Zr135  O161      1.15732      .   S
    Zr3    O161      1.15732      .   S
    Zr50   O162      0.63922      .   S
    Zr132  O162      0.63922      .   S
    Zr50   O163      0.63057      .   S
    Zr130  O163      0.63057      .   S
    Zr49   O164      0.63000  1_655   S
    Zr129  O164      0.63000      .   S
    Zr134  O165      1.14755  1_554   S
    Zr2    O165      1.14755      .   S
    Zr134  O166      0.63189  1_554   S
    Zr48   O166      0.63189  1_455   S
    Zr133  O167      1.14718  1_554   S
    Zr1    O167      1.14718      .   S
    Zr133  O168      0.63188  1_554   S
    Zr51   O168      0.63188      .   S
    Zr132  O169      1.14936      .   S
    Zr0    O169      1.14936      .   S
    Zr130  O170      1.16137      .   S
    Zr10   O170      1.16137      .   S
    Zr129  O171      1.16381      .   S
    Zr9    O171      1.16381      .   S
    Zr9    O172      1.12381      .   S
    Zr149  O172      1.12381      .   S
    Zr9    O173      1.18570      .   S
    Zr113  O173      1.18570      .   S
    Zr9    O174      1.05556  1_554   S
    Zr69   O174      1.05556      .   S
    Zr9    O175      1.12310  1_554   S
    Zr97   O175      1.12310      .   S
    Zr9    O176      1.15202  1_554   S
    Zr85   O176      1.15202      .   S
    Zr10   O177      1.12302      .   S
    Zr150  O177      1.12302      .   S
    Zr10   O178      1.17419      .   S
    Zr114  O178      1.17419      .   S
    Zr10   O179      1.06763  1_554   S
    Zr70   O179      1.06763      .   S
    Zr10   O180      1.12268  1_554   S
    Zr98   O180      1.12268      .   S
    Zr10   O181      1.15102  1_554   S
    Zr86   O181      1.15102      .   S
    Zr24   O182      0.63896      .   S
    Zr80   O182      0.63896      .   S
    Zr24   O183      0.63719      .   S
    Zr86   O183      0.63719  1_556   S
    Zr27   O184      0.63877      .   S
    Zr83   O184      0.63877      .   S
    Zr27   O185      0.63735  1_655   S
    Zr85   O185      0.63735  1_556   S
    Zr0    O186      1.12328      .   S
    Zr80   O186      1.12328      .   S
    Zr0    O187      1.09788      .   S
    Zr144  O187      1.09788      .   S
    Zr0    O188      1.16866      .   S
    Zr116  O188      1.16866      .   S
    Zr0    O189      1.13990  1_554   S
    Zr64   O189      1.13990      .   S
    Zr0    O190      1.13079  1_554   S
    Zr100  O190      1.13079      .   S
    Zr3    O191      1.12435      .   S
    Zr83   O191      1.12435      .   S
    Zr3    O192      1.09957      .   S
    Zr147  O192      1.09957      .   S
    Zr3    O193      1.16364      .   S
    Zr119  O193      1.16364      .   S
    Zr3    O194      1.13917  1_554   S
    Zr67   O194      1.13917      .   S
    Zr3    O195      1.13110  1_554   S
    Zr103  O195      1.13110      .   S
    Zr145  O196      0.63623      .   S
    Zr57   O196      0.63623      .   S
    Zr145  O197      1.12760      .   S
    Zr1    O197      1.12760  1_556   S
    Zr146  O198      0.63641      .   S
    Zr58   O198      0.63641      .   S
    Zr146  O199      1.12659      .   S
    Zr2    O199      1.12659  1_556   S
    Zr150  O200      0.63822      .   S
    Zr58   O200      0.63822      .   S
    Zr149  O201      0.63808      .   S
    Zr57   O201      0.63808      .   S
    Zr144  O202      0.63808      .   S
    Zr56   O202      0.63808      .   S
    Zr147  O203      0.63824      .   S
    Zr59   O203      0.63824      .   S
    Zr151  O204      0.63411      .   S
    Zr59   O204      0.63411      .   S
    Zr151  O205      1.13274      .   S
    Zr11   O205      1.13274  1_556   S
    Zr148  O206      0.63452      .   S
    Zr56   O206      0.63452      .   S
    Zr148  O207      1.13143      .   S
    Zr8    O207      1.13143  1_556   S
    Zr115  O208      0.63669      .   S
    Zr43   O208      0.63669      .   S
    Zr115  O209      1.13742      .   S
    Zr11   O209      1.13742  1_556   S
    Zr112  O210      0.63641      .   S
    Zr40   O210      0.63641  1_655   S
    Zr112  O211      1.13971      .   S
    Zr8    O211      1.13971  1_556   S
    Zr117  O212      0.63996      .   S
    Zr43   O212      0.63996      .   S
    Zr117  O213      1.12467      .   S
    Zr1    O213      1.12467  1_556   S
    Zr118  O214      0.64002      .   S
    Zr40   O214      0.64002      .   S
    Zr118  O215      1.12256      .   S
    Zr2    O215      1.12256  1_556   S
    Zr116  O216      0.63570      .   S
    Zr42   O216      0.63570      .   S
    Zr119  O217      0.63577      .   S
    Zr41   O217      0.63577  1_455   S
    Zr114  O218      0.64121      .   S
    Zr42   O218      0.64121      .   S
    Zr113  O219      0.64116      .   S
    Zr41   O219      0.64116      .   S
    Zr54   O220      0.64126      .   S
    Zr142  O220      0.64126      .   S
    Zr54   O221      0.63587      .   S
    Zr138  O221      0.63587      .   S
    Zr53   O222      0.64104      .   S
    Zr141  O222      0.64104      .   S
    Zr53   O223      0.63595      .   S
    Zr137  O223      0.63595      .   S
    Zr55   O224      0.63984      .   S
    Zr139  O224      0.63984      .   S
    Zr55   O225      0.63650      .   S
    Zr143  O225      0.63650      .   S
    Zr52   O226      0.64000      .   S
    Zr136  O226      0.64000      .   S
    Zr52   O227      0.63683      .   S
    Zr140  O227      0.63683      .   S
    Zr142  O228      1.12236      .   S
    Zr6    O228      1.12236      .   S
    Zr141  O229      1.12244      .   S
    Zr5    O229      1.12244      .   S
    Zr138  O230      1.16715      .   S
    Zr15   O230      1.16715      .   S
    Zr137  O231      1.16625      .   S
    Zr12   O231      1.16625      .   S
    Zr139  O232      1.12090      .   S
    Zr14   O232      1.12090  1_545   S
    Zr136  O233      1.12191      .   S
    Zr13   O233      1.12191      .   S
    Zr47   O234      0.63424      .   S
    Zr123  O234      0.63424      .   S
    Zr47   O235      0.63848      .   S
    Zr125  O235      0.63848      .   S
    Zr143  O236      1.13885      .   S
    Zr7    O236      1.13885  1_545   S
    Zr44   O237      0.63422      .   S
    Zr120  O237      0.63422      .   S
    Zr44   O238      0.63817  1_455   S
    Zr126  O238      0.63817      .   S
    Zr140  O239      1.13907      .   S
    Zr4    O239      1.13907      .   S
    Zr123  O240      1.13133      .   S
    Zr7    O240      1.13133  1_545   S
    Zr120  O241      1.13248      .   S
    Zr4    O241      1.13248      .   S
    Zr125  O242      1.09934      .   S
    Zr12   O242      1.09934      .   S
    Zr126  O243      1.09904      .   S
    Zr15   O243      1.09904      .   S
    Zr46   O244      0.63789      .   S
    Zr122  O244      0.63789      .   S
    Zr46   O245      0.63643      .   S
    Zr124  O245      0.63643      .   S
    Zr45   O246      0.63801  1_655   S
    Zr121  O246      0.63801      .   S
    Zr45   O247      0.63629      .   S
    Zr127  O247      0.63629      .   S
    Zr122  O248      1.11709      .   S
    Zr6    O248      1.11709      .   S
    Zr121  O249      1.11675      .   S
    Zr5    O249      1.11675      .   S
    Zr124  O250      1.12692      .   S
    Zr13   O250      1.12692      .   S
    Zr127  O251      1.13037      .   S
    Zr14   O251      1.13037  1_545   S
    Zr158  O252      0.63712      .   S
    Zr62   O252      0.63712      .   S
    Zr158  O253      1.14830      .   S
    Zr6    O253      1.14830      .   S
    Zr108  O254      1.12355      .   S
    Zr12   O254      1.12355  1_565   S
    Zr108  O255      0.63870      .   S
    Zr36   O255      0.63870      .   S
    Zr157  O256      0.63701      .   S
    Zr61   O256      0.63701      .   S
    Zr157  O257      1.14693      .   S
    Zr5    O257      1.14693      .   S
    Zr111  O258      1.12420      .   S
    Zr15   O258      1.12420      .   S
    Zr111  O259      0.63881      .   S
    Zr39   O259      0.63881      .   S
    Zr62   O260      0.63943      .   S
    Zr154  O260      0.63943      .   S
    Zr154  O261      1.12596      .   S
    Zr15   O261      1.12596      .   S
    Zr153  O262      0.63955      .   S
    Zr61   O262      0.63955      .   S
    Zr153  O263      1.12846      .   S
    Zr12   O263      1.12846      .   S
    Zr12   O264      1.13455  1_565   S
    Zr72   O264      1.13455      .   S
    Zr12   O265      1.13930  1_565   S
    Zr92   O265      1.13930      .   S
    Zr15   O266      1.13163      .   S
    Zr75   O266      1.13163      .   S
    Zr15   O267      1.14003      .   S
    Zr95   O267      1.14003      .   S
    Zr6    O268      1.14354      .   S
    Zr107  O268      1.14354      .   S
    Zr6    O269      1.12799      .   S
    Zr79   O269      1.12799      .   S
    Zr6    O270      1.12348      .   S
    Zr91   O270      1.12348      .   S
    Zr5    O271      1.14395  1_565   S
    Zr104  O271      1.14395      .   S
    Zr5    O272      1.12714  1_565   S
    Zr76   O272      1.12714      .   S
    Zr5    O273      1.12284  1_565   S
    Zr88   O273      1.12284      .   S
    Zr36   O274      0.63718      .   S
    Zr104  O274      0.63718      .   S
    Zr39   O275      0.63719      .   S
    Zr107  O275      0.63719      .   S
    Zr155  O276      0.63727      .   S
    Zr63   O276      0.63727      .   S
    Zr155  O277      1.14195      .   S
    Zr14   O277      1.14195  1_545   S
    Zr152  O278      0.63723      .   S
    Zr60   O278      0.63723      .   S
    Zr152  O279      1.14302      .   S
    Zr13   O279      1.14302      .   S
    Zr63   O280      0.63873      .   S
    Zr159  O280      0.63873      .   S
    Zr60   O281      0.63875      .   S
    Zr156  O281      0.63875      .   S
    Zr14   O282      1.15062      .   S
    Zr110  O282      1.15062      .   S
    Zr14   O283      1.11337      .   S
    Zr74   O283      1.11337      .   S
    Zr14   O284      1.12061      .   S
    Zr94   O284      1.12061      .   S
    Zr13   O285      1.14814      .   S
    Zr109  O285      1.14814      .   S
    Zr13   O286      1.11609      .   S
    Zr73   O286      1.11609      .   S
    Zr13   O287      1.12304      .   S
    Zr93   O287      1.12304      .   S
    Zr7    O288      1.13213      .   S
    Zr106  O288      1.13213      .   S
    Zr7    O289      1.11774  1_545   S
    Zr159  O289      1.11774      .   S
    Zr7    O290      1.10081      .   S
    Zr78   O290      1.10081      .   S
    Zr7    O291      1.16745      .   S
    Zr90   O291      1.16745      .   S
    Zr4    O292      1.12755      .   S
    Zr105  O292      1.12755      .   S
    Zr4    O293      1.12443      .   S
    Zr156  O293      1.12443      .   S
    Zr4    O294      1.09925      .   S
    Zr77   O294      1.09925      .   S
    Zr4    O295      1.16066      .   S
    Zr89   O295      1.16066      .   S
    Zr38   O296      0.63960      .   S
    Zr106  O296      0.63960      .   S
    Zr38   O297      0.63684      .   S
    Zr110  O297      0.63684      .   S
    Zr105  O298      0.63943      .   S
    Zr37   O298      0.63943      .   S
    Zr37   O299      0.63705      .   S
    Zr109  O299      0.63705      .   S
    Zr79   O300      0.63652      .   S
    Zr21   O300      0.63652      .   S
    Zr76   O301      0.65723      .   S
    Zr22   O301      0.65723      .   S
    Zr73   O302      0.63769      .   S
    Zr21   O302      0.63769      .   S
    Zr74   O303      0.61660      .   S
    Zr22   O303      0.61660  1_455   S
    Zr78   O304      0.63831      .   S
    Zr20   O304      0.63831      .   S
    Zr77   O305      0.63813      .   S
    Zr23   O305      0.63813  1_655   S
    Zr72   O306      0.63422      .   S
    Zr20   O306      0.63422      .   S
    Zr75   O307      0.63432      .   S
    Zr23   O307      0.63432      .   S
    Zr92   O308      0.63656      .   S
    Zr28   O308      0.63656      .   S
    Zr95   O309      0.63662      .   S
    Zr31   O309      0.63662      .   S
    Zr91   O310      0.63994      .   S
    Zr31   O310      0.63994      .   S
    Zr88   O311      0.63994      .   S
    Zr28   O311      0.63994      .   S
    Zr89   O312      0.63855      .   S
    Zr29   O312      0.63855      .   S
    Zr90   O313      0.63571      .   S
    Zr30   O313      0.63571      .   S
    Zr94   O314      0.64112      .   S
    Zr30   O314      0.64112      .   S
    Zr93   O315      0.64090      .   S
    Zr29   O315      0.64090      .   S
    Zr17   O316      0.64130      .   S
    Zr65   O316      0.64130      .   S
    Zr17   O317      0.63569      .   S
    Zr71   O317      0.63569      .   S
    Zr18   O318      0.64117      .   S
    Zr66   O318      0.64117      .   S
    Zr18   O319      0.63577  1_655   S
    Zr68   O319      0.63577      .   S
    Zr16   O320      0.63998      .   S
    Zr70   O320      0.63998      .   S
    Zr16   O321      0.63656      .   S
    Zr64   O321      0.63656      .   S
    Zr19   O322      0.78840      .   S
    Zr69   O322      0.78840      .   S
    Zr19   O323      0.51661  1_455   S
    Zr67   O323      0.51661      .   S
    Zr65   O324      1.12064      .   S
    Zr1    O324      1.12064      .   S
    Zr66   O325      1.12046      .   S
    Zr2    O325      1.12046      .   S
    Zr71   O326      1.16901      .   S
    Zr11   O326      1.16901      .   S
    Zr68   O327      1.16761      .   S
    Zr8    O327      1.16761      .   S
    Zr32   O328      0.63441      .   S
    Zr100  O328      0.63441      .   S
    Zr32   O329      0.63812      .   S
    Zr96   O329      0.63812      .   S
    Zr35   O330      0.63415      .   S
    Zr103  O330      0.63415      .   S
    Zr35   O331      0.63831      .   S
    Zr99   O331      0.63831      .   S
    Zr99   O332      1.09803      .   S
    Zr11   O332      1.09803      .   S
    Zr96   O333      1.09860      .   S
    Zr8    O333      1.09860      .   S
    Zr34   O334      0.63786      .   S
    Zr102  O334      0.63786      .   S
    Zr34   O335      0.63629      .   S
    Zr98   O335      0.63629      .   S
    Zr33   O336      0.63797      .   S
    Zr101  O336      0.63797      .   S
    Zr33   O337      0.63620      .   S
    Zr97   O337      0.63620      .   S
    Zr101  O338      1.11662      .   S
    Zr1    O338      1.11662      .   S
    Zr102  O339      1.11634      .   S
    Zr2    O339      1.11634      .   S
    Zr81   O340      0.63695      .   S
    Zr25   O340      0.63695      .   S
    Zr81   O341      1.14811      .   S
    Zr1    O341      1.14811      .   S
    Zr82   O342      0.52682      .   S
    Zr26   O342      0.52682  1_455   S
    Zr82   O343      1.14975      .   S
    Zr2    O343      1.14975      .   S
    Zr131  O344      1.12235      .   S
    Zr11   O344      1.12235      .   S
    Zr131  O345      0.63889      .   S
    Zr51   O345      0.63889      .   S
    Zr87   O346      0.63954      .   S
    Zr25   O346      0.63954      .   S
    Zr87   O347      1.12657      .   S
    Zr11   O347      1.12657      .   S
    Zr84   O348      0.77241      .   S
    Zr26   O348      0.77241      .   S
    Zr84   O349      1.12726      .   S
    Zr8    O349      1.12726      .   S
    Zr128  O350      1.12417      .   S
    Zr8    O350      1.12417      .   S
    Zr128  O351      0.63898      .   S
    Zr48   O351      0.63898      .   S
    Zr0    O352      2.04123      .   S
    Zr10   O352      2.04123      .   S
    Zr1    O353      2.04429      .   S
    Zr11   O353      2.04429      .   S
    Zr2    O354      2.04252  1_655   S
    Zr8    O354      2.04252      .   S
    Zr3    O355      2.04322      .   S
    Zr9    O355      2.04322  1_455   S
    Zr4    O356      2.04419      .   S
    Zr13   O356      2.04419      .   S
    Zr5    O357      2.04433      .   S
    Zr12   O357      2.04433      .   S
    Zr6    O358      2.04470      .   S
    Zr15   O358      2.04470      .   S
    Zr7    O359      2.04597      .   S
    Zr14   O359      2.04597      .   S
    N360   O361      1.07726      .   S
    Zr58   O361      1.82659      .   S
    N360   O362      1.07653      .   S
    Zr54   O362      1.82599      .   S
    N363   O364      1.06880      .   S
    Zr25   O364      1.81503      .   S
    N363   O365      1.05634      .   S
    Zr50   O365      1.79054  1_554   S
    N366   O367      1.06931      .   S
    Zr32   O367      1.81407      .   S
    N366   O368      1.06697      .   S
    Zr28   O368      1.80959      .   S
    N369   O370      1.06707      .   S
    Zr43   O370      1.80951      .   S
    N369   O371      1.06953      .   S
    Zr47   O371      1.81459      .   S
    N372   O373      1.06677      .   S
    Zr40   O373      1.80920      .   S
    N372   O374      1.06909      .   S
    Zr44   O374      1.81380  1_455   S
    N375   O376      1.07526      .   S
    Zr17   O376      1.82392      .   S
    N375   O377      1.07604      .   S
    Zr21   O377      1.82464      .   S
    N378   O379      1.05261  1_545   S
    Zr49   O379      1.78624  1_554   S
    N378   O380      1.06419      .   S
    Zr26   O380      1.80799  1_455   S
    N381   O382      1.06677      .   S
    Zr16   O382      1.80908      .   S
    N381   O383      1.06895      .   S
    Zr20   O383      1.81362      .   S
    N384   O385      1.07576      .   S
    Zr33   O385      1.82420      .   S
    N384   O386      1.07529      .   S
    Zr29   O386      1.82436      .   S
    N387   O388      1.06915      .   S
    Zr35   O388      1.81383      .   S
    N387   O389      1.06689      .   S
    Zr31   O389      1.80940      .   S
    N390   O391      1.07593      .   S
    Zr34   O391      1.82435      .   S
    N390   O392      1.07498      .   S
    Zr30   O392      1.82355      .   S
    N393   O394      1.06817      .   S
    Zr23   O394      1.81299  1_655   S
    N393   O395      1.06131      .   S
    Zr19   O395      1.79952      .   S
    N396   O397      1.07295      .   S
    Zr61   O397      1.81962      .   S
    N396   O398      1.07294      .   S
    Zr37   O398      1.81970      .   S
    N399   O400      1.07282      .   S
    Zr63   O400      1.81937      .   S
    N399   O401      1.07282      .   S
    Zr39   O401      1.81945      .   S
    N402   O403      1.07286      .   S
    Zr36   O403      1.81950      .   S
    N402   O404      1.07286      .   S
    Zr60   O404      1.81949      .   S
    N405   O406      1.07663      .   S
    Zr57   O406      1.82558      .   S
    N405   O407      1.07587      .   S
    Zr53   O407      1.82497      .   S
    N408   O409      1.06659      .   S
    Zr52   O409      1.80858      .   S
    N408   O410      1.06901      .   S
    Zr56   O410      1.81370      .   S
    N411   O412      1.07543      .   S
    Zr45   O412      1.82372  1_655   S
    N411   O413      1.07443      .   S
    Zr41   O413      1.82255      .   S
    N414   O415      1.06676  1_456   S
    Zr27   O415      1.81338      .   S
    N414   O416      1.08154      .   S
    Zr48   O416      1.82815      .   S
    N417   O418      1.07324      .   S
    Zr62   O418      1.82004      .   S
    N417   O419      1.07329      .   S
    Zr38   O419      1.82027      .   S
    N420   O421      1.07546      .   S
    Zr42   O421      1.82420      .   S
    N420   O422      1.07618      .   S
    Zr46   O422      1.82484      .   S
    N423   O424      1.07490      .   S
    Zr18   O424      1.82336      .   S
    N423   O425      1.07572      .   S
    Zr22   O425      1.82418  1_455   S
    N426   O427      1.07975  1_545   S
    Zr51   O427      1.82630      .   S
    N426   O428      1.06751      .   S
    Zr24   O428      1.81393  1_554   S
    N429   O430      1.06717      .   S
    Zr55   O430      1.80954      .   S
    N429   O431      1.06882      .   S
    Zr59   O431      1.81395      .   S
