# CIF file generated by openbabel 2.4.90, see http://openbabel.sf.net
data_I
_chemical_name_common ''
_cell_length_a 19.226
_cell_length_b 22.029
_cell_length_c 18.973
_cell_angle_alpha 101.661
_cell_angle_beta 87.803
_cell_angle_gamma 90.678
_space_group_name_H-M_alt 'P 1'
_space_group_name_Hall 'P 1'
loop_
    _symmetry_equiv_pos_as_xyz
    x,y,z
loop_
    _atom_site_label
    _atom_site_type_symbol
    _atom_site_fract_x
    _atom_site_fract_y
    _atom_site_fract_z
    _atom_site_occupancy
    C0      C    0.39325   0.25180   0.00753   1.000
    C1      C    0.39499   0.74923   0.99427   1.000
    C2      C    0.89528   0.24846   0.99503   1.000
    C3      C    0.89236   0.75005   0.00970   1.000
    C4      C    0.14225   0.49956   0.50946   1.000
    C5      C    0.14509   0.99718   0.49553   1.000
    C6      C    0.64478   0.49886   0.49472   1.000
    C7      C    0.64247   0.00000   0.50839   1.000
    C8      C    0.10780   0.24966   0.99396   1.000
    C9      C    0.10505   0.75213   0.00000   1.000
    C10     C    0.60575   0.25293   0.00000   1.000
    C11     C    0.60772   0.75158   0.99240   1.000
    C12     C    0.35783   0.99952   0.49333   1.000
    C13     C    0.35497   0.50084   0.50760   1.000
    C14     C    0.85535   0.00142   0.50725   1.000
    C15     C    0.85754   0.50061   0.49357   1.000
    C16     C    0.10957   0.19588   0.76238   1.000
    C17     C    0.12138   0.69322   0.77220   1.000
    C18     C    0.62275   0.19226   0.77072   1.000
    C19     C    0.60903   0.69879   0.75990   1.000
    C20     C    0.11282   0.13470   0.63601   1.000
    C21     C    0.11175   0.61984   0.65368   1.000
    C22     C    0.61225   0.11919   0.65217   1.000
    C23     C    0.61214   0.63767   0.63353   1.000
    C24     C    0.38980   0.13875   0.67044   1.000
    C25     C    0.38826   0.63208   0.63839   1.000
    C26     C    0.88896   0.13337   0.63844   1.000
    C27     C    0.88896   0.63566   0.67251   1.000
    C28     C    0.40034   0.21015   0.79068   1.000
    C29     C    0.38559   0.69297   0.76458   1.000
    C30     C    0.88613   0.19424   0.76469   1.000
    C31     C    0.89864   0.70716   0.79278   1.000
    C32     C    0.11705   0.04766   0.99539   1.000
    C33     C    0.10523   0.56619   0.99121   1.000
    C34     C    0.60449   0.06715   0.98994   1.000
    C35     C    0.61817   0.54956   0.99374   1.000
    C36     C    0.38245   0.04970   0.00000   1.000
    C37     C    0.39553   0.56497   0.99571   1.000
    C38     C    0.89452   0.06377   0.99661   1.000
    C39     C    0.88335   0.54804   0.00000   1.000
    C40     C    0.35193   0.04481   0.70936   1.000
    C41     C    0.36421   0.55517   0.73833   1.000
    C42     C    0.86400   0.05610   0.73739   1.000
    C43     C    0.85029   0.54197   0.71168   1.000
    C44     C    0.36196   0.11718   0.82890   1.000
    C45     C    0.36152   0.61606   0.86456   1.000
    C46     C    0.86163   0.11640   0.86380   1.000
    C47     C    0.86015   0.61339   0.83196   1.000
    C48     C    0.13909   0.13128   0.84960   1.000
    C49     C    0.13764   0.61532   0.86698   1.000
    C50     C    0.63772   0.11521   0.86721   1.000
    C51     C    0.63780   0.63426   0.84784   1.000
    C52     C    0.12917   0.05733   0.73160   1.000
    C53     C    0.14077   0.55429   0.74055   1.000
    C54     C    0.64053   0.05455   0.74064   1.000
    C55     C    0.62793   0.56088   0.72943   1.000
    C56     C    0.36676   0.20091   0.48481   1.000
    C57     C    0.35578   0.68600   0.50821   1.000
    C58     C    0.85621   0.18758   0.50629   1.000
    C59     C    0.86708   0.70262   0.48620   1.000
    C60     C    0.14507   0.18337   0.51221   1.000
    C61     C    0.13335   0.70102   0.50566   1.000
    C62     C    0.63357   0.20182   0.50625   1.000
    C63     C    0.64520   0.68414   0.51046   1.000
    C64     C    0.39127   0.30382   0.23989   1.000
    C65     C    0.37857   0.80689   0.23068   1.000
    C66     C    0.87805   0.30792   0.23053   1.000
    C67     C    0.89114   0.80234   0.24082   1.000
    C68     C    0.38800   0.36399   0.36668   1.000
    C69     C    0.38863   0.87990   0.34936   1.000
    C70     C    0.88782   0.38099   0.34922   1.000
    C71     C    0.88780   0.86285   0.36750   1.000
    C72     C    0.11042   0.36283   0.33165   1.000
    C73     C    0.11169   0.86617   0.36425   1.000
    C74     C    0.61189   0.36728   0.36331   1.000
    C75     C    0.61148   0.86570   0.32828   1.000
    C76     C    0.10062   0.29154   0.21123   1.000
    C77     C    0.11460   0.80597   0.23770   1.000
    C78     C    0.61472   0.30741   0.23663   1.000
    C79     C    0.60131   0.79447   0.20794   1.000
    C80     C    0.38398   0.45336   0.00000   1.000
    C81     C    0.39487   0.93552   0.00000   1.000
    C82     C    0.89630   0.43391   0.00000   1.000
    C83     C    0.88237   0.95239   0.00000   1.000
    C84     C    0.11822   0.45212   0.98723   1.000
    C85     C    0.10491   0.93628   0.00668   1.000
    C86     C    0.60662   0.43793   0.00427   1.000
    C87     C    0.61690   0.95298   0.98576   1.000
    C88     C    0.14874   0.45595   0.29254   1.000
    C89     C    0.13587   0.94305   0.26433   1.000
    C90     C    0.63620   0.44473   0.26374   1.000
    C91     C    0.64995   0.95975   0.29060   1.000
    C92     C    0.13905   0.38434   0.17236   1.000
    C93     C    0.13852   0.88376   0.13744   1.000
    C94     C    0.63914   0.38468   0.13720   1.000
    C95     C    0.63999   0.88833   0.17000   1.000
    C96     C    0.36187   0.36898   0.15319   1.000
    C97     C    0.36242   0.88516   0.13462   1.000
    C98     C    0.86300   0.38535   0.13524   1.000
    C99     C    0.86228   0.86718   0.15440   1.000
    C100    C    0.37147   0.44206   0.27187   1.000
    C101    C    0.35931   0.94478   0.26164   1.000
    C102    C    0.85963   0.44580   0.26184   1.000
    C103    C    0.87228   0.94052   0.27287   1.000
    C104    C    0.13231   0.29769   0.51750   1.000
    C105    C    0.14533   0.81277   0.49594   1.000
    C106    C    0.64462   0.31359   0.49633   1.000
    C107    C    0.63210   0.79838   0.51549   1.000
    C108    C    0.35401   0.31521   0.49014   1.000
    C109    C    0.36777   0.79775   0.49830   1.000
    C110    C    0.86728   0.29939   0.49652   1.000
    C111    C    0.85398   0.81682   0.49109   1.000
    C112    C    0.51204   0.20317   0.78894   1.000
    C113    C    0.49712   0.69804   0.77076   1.000
    C114    C    0.99760   0.19717   0.77204   1.000
    C115    C    0.00000   0.70226   0.79070   1.000
    C116    C    0.06155   0.18220   0.73480   1.000
    C117    C    0.07078   0.68049   0.74977   1.000
    C118    C    0.57204   0.18044   0.74812   1.000
    C119    C    0.56096   0.68421   0.73283   1.000
    C120    C    0.06334   0.14821   0.66438   1.000
    C121    C    0.06537   0.63969   0.68396   1.000
    C122    C    0.56613   0.13981   0.68220   1.000
    C123    C    0.56267   0.65022   0.66240   1.000
    C124    C    0.50005   0.12227   0.65618   1.000
    C125    C    0.50044   0.62962   0.62874   1.000
    C126    C    0.00000   0.12877   0.63008   1.000
    C127    C    0.99951   0.62109   0.65795   1.000
    C128    C    0.44051   0.15083   0.69295   1.000
    C129    C    0.43649   0.64695   0.66509   1.000
    C130    C    0.93714   0.14731   0.66569   1.000
    C131    C    0.93954   0.64861   0.69490   1.000
    C132    C    0.44637   0.19068   0.75939   1.000
    C133    C    0.43492   0.68094   0.73536   1.000
    C134    C    0.93549   0.18129   0.73596   1.000
    C135    C    0.94492   0.68853   0.76134   1.000
    C136    C    0.51832   0.23302   0.86632   1.000
    C137    C    0.49433   0.72603   0.84974   1.000
    C138    C    0.99428   0.22500   0.85104   1.000
    C139    C    0.00000   0.73252   0.86802   1.000
    C140    C    0.49254   0.06879   0.59438   1.000
    C141    C    0.50174   0.58661   0.55658   1.000
    C142    C    0.00000   0.08568   0.55802   1.000
    C143    C    0.99276   0.56766   0.59595   1.000
    C144    C    0.49271   0.06489   0.00213   1.000
    C145    C    0.50758   0.56356   0.99400   1.000
    C146    C    0.00000   0.06205   0.99530   1.000
    C147    C    0.99349   0.56359   0.00382   1.000
    C148    C    0.06598   0.02623   0.99821   1.000
    C149    C    0.05992   0.53682   0.99560   1.000
    C150    C    0.55903   0.03791   0.99413   1.000
    C151    C    0.56723   0.52791   0.99655   1.000
    C152    C    0.43347   0.02794   0.00000   1.000
    C153    C    0.44132   0.53674   0.99753   1.000
    C154    C    0.94016   0.03546   0.99879   1.000
    C155    C    0.93446   0.52645   0.00000   1.000
    C156    C    0.48463   0.13259   0.00430   1.000
    C157    C    0.51523   0.62996   0.98851   1.000
    C158    C    0.00000   0.12836   0.98936   1.000
    C159    C    0.98496   0.63127   0.00592   1.000
    C160    C    0.24001   0.04897   0.71225   1.000
    C161    C    0.25274   0.55260   0.73094   1.000
    C162    C    0.75249   0.05325   0.73048   1.000
    C163    C    0.73869   0.54943   0.71229   1.000
    C164    C    0.30572   0.06330   0.74104   1.000
    C165    C    0.31487   0.56829   0.76704   1.000
    C166    C    0.81473   0.06894   0.76636   1.000
    C167    C    0.80410   0.56168   0.74249   1.000
    C168    C    0.31129   0.10371   0.80710   1.000
    C169    C    0.31330   0.60228   0.83730   1.000
    C170    C    0.81333   0.10260   0.83670   1.000
    C171    C    0.80960   0.60156   0.80890   1.000
    C172    C    0.25136   0.13104   0.84435   1.000
    C173    C    0.24939   0.62099   0.87293   1.000
    C174    C    0.74951   0.12107   0.87275   1.000
    C175    C    0.74996   0.63052   0.84505   1.000
    C176    C    0.18544   0.11168   0.81909   1.000
    C177    C    0.18710   0.60175   0.83860   1.000
    C178    C    0.68713   0.10181   0.83861   1.000
    C179    C    0.68404   0.61332   0.81827   1.000
    C180    C    0.17986   0.07051   0.75356   1.000
    C181    C    0.18882   0.56780   0.76816   1.000
    C182    C    0.68867   0.06810   0.76806   1.000
    C183    C    0.67848   0.57253   0.75248   1.000
    C184    C    0.23382   0.01843   0.63504   1.000
    C185    C    0.25599   0.52466   0.65190   1.000
    C186    C    0.75545   0.02571   0.65139   1.000
    C187    C    0.73306   0.51943   0.63485   1.000
    C188    C    0.25812   0.18508   0.90564   1.000
    C189    C    0.24804   0.66401   0.94506   1.000
    C190    C    0.74850   0.16393   0.94498   1.000
    C191    C    0.75743   0.68403   0.90682   1.000
    C192    C    0.25669   0.18568   0.49816   1.000
    C193    C    0.24380   0.68718   0.50750   1.000
    C194    C    0.74420   0.18833   0.50678   1.000
    C195    C    0.75694   0.68694   0.49805   1.000
    C196    C    0.31574   0.22268   0.49188   1.000
    C197    C    0.31012   0.71417   0.50556   1.000
    C198    C    0.81030   0.21559   0.50416   1.000
    C199    C    0.81594   0.72417   0.49250   1.000
    C200    C    0.19037   0.21266   0.50747   1.000
    C201    C    0.18435   0.72278   0.50402   1.000
    C202    C    0.68442   0.22374   0.50400   1.000
    C203    C    0.69047   0.71363   0.50636   1.000
    C204    C    0.26508   0.11796   0.49560   1.000
    C205    C    0.23574   0.62071   0.51277   1.000
    C206    C    0.73685   0.12175   0.51190   1.000
    C207    C    0.76548   0.61928   0.49578   1.000
    C208    C    0.98888   0.29781   0.21260   1.000
    C209    C    0.00311   0.80211   0.23078   1.000
    C210    C    0.50322   0.30357   0.22969   1.000
    C211    C    0.48938   0.79869   0.21105   1.000
    C212    C    0.43931   0.31772   0.26736   1.000
    C213    C    0.42929   0.81988   0.25268   1.000
    C214    C    0.92863   0.32007   0.25320   1.000
    C215    C    0.93915   0.81631   0.26831   1.000
    C216    C    0.43751   0.35115   0.33803   1.000
    C217    C    0.43495   0.86051   0.31858   1.000
    C218    C    0.93412   0.36068   0.31919   1.000
    C219    C    0.93731   0.84992   0.33889   1.000
    C220    C    0.00003   0.37866   0.34553   1.000
    C221    C    0.99952   0.86970   0.37307   1.000
    C222    C    0.49971   0.37087   0.37226   1.000
    C223    C    0.50090   0.87959   0.34396   1.000
    C224    C    0.05984   0.35046   0.30896   1.000
    C225    C    0.06352   0.85190   0.33710   1.000
    C226    C    0.56369   0.35315   0.33618   1.000
    C227    C    0.56077   0.85250   0.30636   1.000
    C228    C    0.05439   0.31067   0.24242   1.000
    C229    C    0.06523   0.81832   0.26669   1.000
    C230    C    0.56535   0.31972   0.26563   1.000
    C231    C    0.55513   0.81271   0.23987   1.000
    C232    C    0.98310   0.26814   0.13508   1.000
    C233    C    0.00623   0.77477   0.15169   1.000
    C234    C    0.50611   0.27629   0.15052   1.000
    C235    C    0.48301   0.76889   0.13365   1.000
    C236    C    0.00697   0.43226   0.40731   1.000
    C237    C    0.99798   0.91246   0.44536   1.000
    C238    C    0.49813   0.41338   0.44476   1.000
    C239    C    0.50789   0.93308   0.40590   1.000
    C240    C    0.00807   0.43652   0.99911   1.000
    C241    C    0.99287   0.93801   0.00000   1.000
    C242    C    0.49456   0.43935   0.00000   1.000
    C243    C    0.50666   0.93780   0.99751   1.000
    C244    C    0.43493   0.47501   0.00000   1.000
    C245    C    0.44033   0.96476   0.00000   1.000
    C246    C    0.94163   0.46330   0.00000   1.000
    C247    C    0.93344   0.97382   0.00000   1.000
    C248    C    0.06710   0.47368   0.99336   1.000
    C249    C    0.05926   0.96460   0.00454   1.000
    C250    C    0.56083   0.46617   0.00243   1.000
    C251    C    0.56588   0.97474   0.99182   1.000
    C252    C    0.01650   0.36885   0.99701   1.000
    C253    C    0.98482   0.87169   0.00000   1.000
    C254    C    0.48673   0.37296   0.00000   1.000
    C255    C    0.51492   0.87015   0.99556   1.000
    C256    C    0.26059   0.45095   0.29048   1.000
    C257    C    0.24734   0.94595   0.27158   1.000
    C258    C    0.74764   0.44742   0.27143   1.000
    C259    C    0.76154   0.95210   0.29004   1.000
    C260    C    0.19502   0.43732   0.26109   1.000
    C261    C    0.18521   0.93043   0.23541   1.000
    C262    C    0.68561   0.43183   0.23509   1.000
    C263    C    0.69611   0.93998   0.25985   1.000
    C264    C    0.18964   0.39736   0.19468   1.000
    C265    C    0.18678   0.89731   0.16470   1.000
    C266    C    0.68733   0.39827   0.16460   1.000
    C267    C    0.69055   0.90009   0.19340   1.000
    C268    C    0.24960   0.36989   0.15768   1.000
    C269    C    0.25067   0.87921   0.12870   1.000
    C270    C    0.75126   0.37974   0.12886   1.000
    C271    C    0.75014   0.87098   0.15735   1.000
    C272    C    0.31546   0.38871   0.18352   1.000
    C273    C    0.31294   0.89824   0.16321   1.000
    C274    C    0.81345   0.39877   0.16352   1.000
    C275    C    0.81609   0.88815   0.18400   1.000
    C276    C    0.32086   0.42936   0.24943   1.000
    C277    C    0.31123   0.93140   0.23403   1.000
    C278    C    0.81159   0.43239   0.23416   1.000
    C279    C    0.82171   0.92894   0.24983   1.000
    C280    C    0.26645   0.48074   0.36790   1.000
    C281    C    0.24411   0.97312   0.35081   1.000
    C282    C    0.74429   0.47518   0.35055   1.000
    C283    C    0.76725   0.98194   0.36751   1.000
    C284    C    0.24282   0.31618   0.09600   1.000
    C285    C    0.25200   0.83707   0.05593   1.000
    C286    C    0.75249   0.33729   0.05625   1.000
    C287    C    0.74262   0.81730   0.09570   1.000
    C288    C    0.24238   0.31291   0.50422   1.000
    C289    C    0.25731   0.81160   0.49660   1.000
    C290    C    0.75666   0.31284   0.49580   1.000
    C291    C    0.74223   0.81407   0.50368   1.000
    C292    C    0.18332   0.27591   0.51046   1.000
    C293    C    0.19099   0.78461   0.49859   1.000
    C294    C    0.69054   0.28560   0.49848   1.000
    C295    C    0.68322   0.77682   0.50910   1.000
    C296    C    0.30870   0.28592   0.49480   1.000
    C297    C    0.31676   0.77599   0.50007   1.000
    C298    C    0.81642   0.27744   0.49870   1.000
    C299    C    0.80870   0.78736   0.49525   1.000
    C300    C    0.23406   0.38066   0.50692   1.000
    C301    C    0.26514   0.87806   0.49126   1.000
    C302    C    0.76421   0.37932   0.49039   1.000
    C303    C    0.73370   0.88178   0.50632   1.000
    C304    C    0.46325   0.24308   0.90628   1.000
    C305    C    0.43374   0.73841   0.87950   1.000
    C306    C    0.93341   0.23737   0.88006   1.000
    C307    C    0.96103   0.74182   0.90768   1.000
    C308    C    0.05021   0.23226   0.88550   1.000
    C309    C    0.07755   0.74386   0.89180   1.000
    C310    C    0.57975   0.24323   0.88986   1.000
    C311    C    0.55070   0.73344   0.88342   1.000
    C312    C    0.43169   0.05297   0.57410   1.000
    C313    C    0.44362   0.56744   0.53005   1.000
    C314    C    0.94453   0.06689   0.53081   1.000
    C315    C    0.93228   0.55201   0.57430   1.000
    C316    C    0.06122   0.06922   0.52735   1.000
    C317    C    0.04801   0.53830   0.57063   1.000
    C318    C    0.54754   0.03957   0.56788   1.000
    C319    C    0.56034   0.57063   0.52520   1.000
    C320    C    0.42291   0.15443   0.01239   1.000
    C321    C    0.46093   0.66149   0.98446   1.000
    C322    C    0.96067   0.16020   0.98516   1.000
    C323    C    0.92323   0.65300   0.01510   1.000
    C324    C    0.07675   0.14985   0.98850   1.000
    C325    C    0.03850   0.66409   0.99744   1.000
    C326    C    0.53851   0.16535   0.99706   1.000
    C327    C    0.57712   0.65184   0.98780   1.000
    C328    C    0.17249   0.00781   0.61140   1.000
    C329    C    0.19998   0.51748   0.61700   1.000
    C330    C    0.69932   0.01873   0.61729   1.000
    C331    C    0.67189   0.50905   0.61069   1.000
    C332    C    0.28904   0.00819   0.59534   1.000
    C333    C    0.31678   0.51210   0.62286   1.000
    C334    C    0.81615   0.01326   0.62197   1.000
    C335    C    0.78857   0.50941   0.59557   1.000
    C336    C    0.20264   0.21343   0.93218   1.000
    C337    C    0.18931   0.68035   0.97580   1.000
    C338    C    0.68997   0.18118   0.97564   1.000
    C339    C    0.70282   0.71456   0.93186   1.000
    C340    C    0.31877   0.20229   0.92540   1.000
    C341    C    0.30607   0.68281   0.97220   1.000
    C342    C    0.80670   0.18177   0.97232   1.000
    C343    C    0.81812   0.69866   0.92850   1.000
    C344    C    0.21138   0.08503   0.50296   1.000
    C345    C    0.17376   0.59900   0.51270   1.000
    C346    C    0.67501   0.09973   0.51241   1.000
    C347    C    0.71180   0.58633   0.50316   1.000
    C348    C    0.32686   0.09632   0.48724   1.000
    C349    C    0.28978   0.58902   0.51742   1.000
    C350    C    0.79128   0.09036   0.51580   1.000
    C351    C    0.82729   0.59767   0.48759   1.000
    C352    C    0.03846   0.25809   0.09562   1.000
    C353    C    0.06692   0.76250   0.12219   1.000
    C354    C    0.56671   0.26408   0.12072   1.000
    C355    C    0.53802   0.75972   0.09347   1.000
    C356    C    0.44979   0.26926   0.11673   1.000
    C357    C    0.42163   0.75781   0.11029   1.000
    C358    C    0.92186   0.25810   0.11098   1.000
    C359    C    0.95007   0.76780   0.11761   1.000
    C360    C    0.06749   0.44791   0.42877   1.000
    C361    C    0.05600   0.93101   0.47270   1.000
    C362    C    0.55602   0.43225   0.47214   1.000
    C363    C    0.56862   0.94924   0.42630   1.000
    C364    C    0.43930   0.42928   0.47561   1.000
    C365    C    0.45267   0.96199   0.43234   1.000
    C366    C    0.95181   0.46180   0.43255   1.000
    C367    C    0.93918   0.92884   0.47594   1.000
    C368    C    0.07835   0.34729   0.98971   1.000
    C369    C    0.03891   0.83995   0.00000   1.000
    C370    C    0.54090   0.34122   0.00000   1.000
    C371    C    0.57671   0.84847   0.98731   1.000
    C372    C    0.42473   0.35134   0.00000   1.000
    C373    C    0.46122   0.83731   0.00000   1.000
    C374    C    0.96274   0.33577   0.00000   1.000
    C375    C    0.92281   0.85008   0.00000   1.000
    C376    C    0.32770   0.49106   0.39190   1.000
    C377    C    0.30018   0.98094   0.38505   1.000
    C378    C    0.80025   0.48241   0.38497   1.000
    C379    C    0.82845   0.99216   0.39162   1.000
    C380    C    0.21110   0.49064   0.40749   1.000
    C381    C    0.18324   0.98449   0.38019   1.000
    C382    C    0.68348   0.48765   0.37970   1.000
    C383    C    0.71183   0.99196   0.40691   1.000
    C384    C    0.29825   0.28818   0.06870   1.000
    C385    C    0.31068   0.82107   0.02486   1.000
    C386    C    0.81105   0.32025   0.02550   1.000
    C387    C    0.79727   0.78674   0.07088   1.000
    C388    C    0.18208   0.29886   0.07660   1.000
    C389    C    0.19397   0.81861   0.02853   1.000
    C390    C    0.69437   0.31962   0.02850   1.000
    C391    C    0.68190   0.80260   0.07420   1.000
    C392    C    0.28782   0.41355   0.49961   1.000
    C393    C    0.32705   0.89989   0.49047   1.000
    C394    C    0.82606   0.40133   0.49040   1.000
    C395    C    0.78733   0.91472   0.49866   1.000
    C396    C    0.17233   0.40243   0.51542   1.000
    C397    C    0.21085   0.90966   0.48738   1.000
    C398    C    0.70998   0.41075   0.48565   1.000
    C399    C    0.67198   0.90355   0.51516   1.000
    O400    O    0.49065   0.40616   0.00000   1.000
    O401    O    0.46474   0.45718   0.00000   1.000
    O402    O    0.52770   0.45276   0.00121   1.000
    O403    O    0.95381   0.86088   0.00000   1.000
    O404    O    0.90758   0.80006   0.00485   1.000
    O405    O    0.45573   0.36215   0.00000   1.000
    O406    O    0.51382   0.35709   0.00000   1.000
    O407    O    0.01187   0.85582   0.00000   1.000
    O408    O    0.98884   0.90485   0.00000   1.000
    O409    O    0.96315   0.95592   0.00000   1.000
    O410    O    0.90791   0.96311   0.00000   1.000
    O411    O    0.93680   0.00464   0.99939   1.000
    O412    O    0.93804   0.49487   0.00000   1.000
    O413    O    0.91897   0.44860   0.00000   1.000
    O414    O    0.97485   0.44991   0.99956   1.000
    O415    O    0.41760   0.95014   0.00000   1.000
    O416    O    0.43690   0.99635   0.00000   1.000
    O417    O    0.47349   0.95128   0.99876   1.000
    O418    O    0.40945   0.46418   0.00000   1.000
    O419    O    0.43812   0.50588   0.99877   1.000
    O420    O    0.40796   0.03882   0.00000   1.000
    O421    O    0.92901   0.29211   0.99752   1.000
    O422    O    0.98962   0.35231   0.99851   1.000
    O423    O    0.42810   0.79327   0.99714   1.000
    O424    O    0.48807   0.85373   0.99778   1.000
    O425    O    0.90891   0.53724   0.00000   1.000
    O426    O    0.40899   0.30157   0.00377   1.000
    O427    O    0.57332   0.29707   0.00000   1.000
    O428    O    0.07198   0.79604   0.00000   1.000
    O429    O    0.02606   0.95130   0.00227   1.000
    O430    O    0.96398   0.54502   0.00191   1.000
    O431    O    0.14951   0.78537   0.01427   1.000
    O432    O    0.08599   0.75731   0.06109   1.000
    O433    O    0.09130   0.74799   0.94590   1.000
    O434    O    0.14718   0.71624   0.98790   1.000
    O435    O    0.07178   0.70810   0.99872   1.000
    O436    O    0.65006   0.28628   0.01425   1.000
    O437    O    0.58623   0.25850   0.06036   1.000
    O438    O    0.59275   0.24808   0.94493   1.000
    O439    O    0.64786   0.21705   0.98782   1.000
    O440    O    0.57213   0.20914   0.99853   1.000
    O441    O    0.46309   0.04641   0.00106   1.000
    O442    O    0.48867   0.09874   0.00322   1.000
    O443    O    0.52587   0.05140   0.99813   1.000
    O444    O    0.58372   0.45205   0.00335   1.000
    O445    O    0.56403   0.49704   0.99949   1.000
    O446    O    0.98923   0.59743   0.00487   1.000
    O447    O    0.02670   0.55020   0.99971   1.000
    O448    O    0.45377   0.14351   0.00835   1.000
    O449    O    0.51157   0.14897   0.00068   1.000
    O450    O    0.08208   0.95044   0.00561   1.000
    O451    O    0.06262   0.99541   0.00138   1.000
    O452    O    0.95410   0.64213   0.01051   1.000
    O453    O    0.01173   0.64768   0.00168   1.000
    O454    O    0.40808   0.20311   0.00996   1.000
    O455    O    0.34575   0.26999   0.03812   1.000
    O456    O    0.42152   0.26053   0.06213   1.000
    O457    O    0.42825   0.24744   0.95691   1.000
    O458    O    0.35601   0.22704   0.96647   1.000
    O459    O    0.90779   0.70152   0.01240   1.000
    O460    O    0.84481   0.76839   0.04029   1.000
    O461    O    0.92121   0.75892   0.06366   1.000
    O462    O    0.92670   0.74594   0.95869   1.000
    O463    O    0.85524   0.72435   0.96910   1.000
    O464    O    0.28134   0.82907   0.04040   1.000
    O465    O    0.35284   0.78515   0.00957   1.000
    O466    O    0.78177   0.32877   0.04088   1.000
    O467    O    0.85317   0.28435   0.01027   1.000
    O468    O    0.72343   0.32846   0.04238   1.000
    O469    O    0.22298   0.82784   0.04223   1.000
    O470    O    0.25134   0.85814   0.09232   1.000
    O471    O    0.75188   0.35852   0.09256   1.000
    O472    O    0.27053   0.30218   0.08235   1.000
    O473    O    0.76994   0.80202   0.08329   1.000
    O474    O    0.71226   0.80995   0.08495   1.000
    O475    O    0.64481   0.77709   0.03330   1.000
    O476    O    0.21245   0.30752   0.08630   1.000
    O477    O    0.14494   0.27425   0.03528   1.000
    O478    O    0.51052   0.76430   0.11356   1.000
    O479    O    0.57287   0.75565   0.04294   1.000
    O480    O    0.01078   0.26311   0.11535   1.000
    O481    O    0.07313   0.25387   0.04479   1.000
    O482    O    0.74638   0.84414   0.12652   1.000
    O483    O    0.24621   0.34303   0.12684   1.000
    O484    O    0.45232   0.76335   0.12197   1.000
    O485    O    0.40831   0.75352   0.05228   1.000
    O486    O    0.95248   0.26312   0.12303   1.000
    O487    O    0.90857   0.25328   0.05300   1.000
    O488    O    0.47795   0.27277   0.13363   1.000
    O489    O    0.97815   0.77129   0.13465   1.000
    O490    O    0.53641   0.27018   0.13562   1.000
    O491    O    0.03658   0.76864   0.13694   1.000
    O492    O    0.28181   0.88873   0.14596   1.000
    O493    O    0.21873   0.88826   0.14670   1.000
    O494    O    0.78236   0.38926   0.14619   1.000
    O495    O    0.71930   0.38901   0.14673   1.000
    O496    O    0.48620   0.78379   0.17235   1.000
    O497    O    0.33768   0.89170   0.14891   1.000
    O498    O    0.98599   0.28298   0.17384   1.000
    O499    O    0.83823   0.39206   0.14938   1.000
    O500    O    0.66323   0.39147   0.15090   1.000
    O501    O    0.16265   0.89054   0.15107   1.000
    O502    O    0.50467   0.28993   0.19011   1.000
    O503    O    0.00467   0.78844   0.19124   1.000
    O504    O    0.33867   0.37884   0.16836   1.000
    O505    O    0.83918   0.87766   0.16920   1.000
    O506    O    0.78311   0.87956   0.17067   1.000
    O507    O    0.72034   0.88553   0.17538   1.000
    O508    O    0.28253   0.37930   0.17060   1.000
    O509    O    0.21962   0.38362   0.17618   1.000
    O510    O    0.31208   0.91482   0.19862   1.000
    O511    O    0.81252   0.41558   0.19884   1.000
    O512    O    0.68647   0.41505   0.19985   1.000
    O513    O    0.18599   0.91387   0.20006   1.000
    O514    O    0.66527   0.89421   0.18170   1.000
    O515    O    0.16434   0.39085   0.18352   1.000
    O516    O    0.31816   0.40903   0.21648   1.000
    O517    O    0.81890   0.90855   0.21691   1.000
    O518    O    0.69333   0.92003   0.22662   1.000
    O519    O    0.19233   0.41734   0.22789   1.000
    O520    O    0.57822   0.80359   0.22391   1.000
    O521    O    0.52226   0.80570   0.22546   1.000
    O522    O    0.45933   0.80929   0.23187   1.000
    O523    O    0.07750   0.30110   0.22682   1.000
    O524    O    0.02164   0.30424   0.22751   1.000
    O525    O    0.95876   0.30894   0.23290   1.000
    O526    O    0.53428   0.31165   0.24766   1.000
    O527    O    0.47127   0.31064   0.24852   1.000
    O528    O    0.90334   0.31400   0.24186   1.000
    O529    O    0.40393   0.81338   0.24168   1.000
    O530    O    0.03417   0.81021   0.24874   1.000
    O531    O    0.97113   0.80921   0.24955   1.000
    O532    O    0.33527   0.93809   0.24784   1.000
    O533    O    0.27929   0.93867   0.25281   1.000
    O534    O    0.83561   0.43910   0.24800   1.000
    O535    O    0.77962   0.43991   0.25279   1.000
    O536    O    0.66091   0.43828   0.24941   1.000
    O537    O    0.71663   0.43962   0.25326   1.000
    O538    O    0.16054   0.93674   0.24987   1.000
    O539    O    0.21628   0.93819   0.25349   1.000
    O540    O    0.59003   0.31357   0.25113   1.000
    O541    O    0.08992   0.81214   0.25220   1.000
    O542    O    0.55795   0.83260   0.27312   1.000
    O543    O    0.41529   0.31077   0.25362   1.000
    O544    O    0.91515   0.80933   0.25456   1.000
    O545    O    0.05711   0.33056   0.27569   1.000
    O546    O    0.34616   0.43571   0.26065   1.000
    O547    O    0.29073   0.44015   0.26996   1.000
    O548    O    0.84700   0.93473   0.26135   1.000
    O549    O    0.79163   0.94052   0.26994   1.000
    O550    O    0.43212   0.84020   0.28563   1.000
    O551    O    0.93138   0.34037   0.28619   1.000
    O552    O    0.72882   0.94604   0.27495   1.000
    O553    O    0.67303   0.94987   0.27523   1.000
    O554    O    0.22780   0.44413   0.27579   1.000
    O555    O    0.17188   0.44663   0.27682   1.000
    O556    O    0.56452   0.33644   0.30090   1.000
    O557    O    0.06438   0.83511   0.30190   1.000
    O558    O    0.43841   0.33443   0.30269   1.000
    O559    O    0.93823   0.83311   0.30360   1.000
    O560    O    0.74596   0.46130   0.31099   1.000
    O561    O    0.24573   0.95953   0.31120   1.000
    O562    O    0.76440   0.96702   0.32878   1.000
    O563    O    0.26352   0.46585   0.32919   1.000
    O564    O    0.58612   0.85910   0.31732   1.000
    O565    O    0.53084   0.86604   0.32516   1.000
    O566    O    0.08513   0.35664   0.32031   1.000
    O567    O    0.02993   0.36456   0.32725   1.000
    O568    O    0.46792   0.87005   0.33127   1.000
    O569    O    0.41179   0.87020   0.33397   1.000
    O570    O    0.96708   0.36967   0.33236   1.000
    O571    O    0.91097   0.37083   0.33420   1.000
    O572    O    0.58779   0.36022   0.34975   1.000
    O573    O    0.53170   0.36201   0.35422   1.000
    O574    O    0.08761   0.85903   0.35068   1.000
    O575    O    0.03152   0.86080   0.35509   1.000
    O576    O    0.41275   0.35757   0.35236   1.000
    O577    O    0.46861   0.36101   0.35515   1.000
    O578    O    0.91256   0.85638   0.35320   1.000
    O579    O    0.96841   0.85981   0.35598   1.000
    O580    O    0.50439   0.90633   0.37493   1.000
    O581    O    0.00350   0.40546   0.37642   1.000
    O582    O    0.71388   0.48142   0.36513   1.000
    O583    O    0.77227   0.47880   0.36776   1.000
    O584    O    0.21367   0.97880   0.36550   1.000
    O585    O    0.27215   0.97703   0.36793   1.000
    O586    O    0.79785   0.98705   0.37957   1.000
    O587    O    0.73954   0.98695   0.38721   1.000
    O588    O    0.29708   0.48590   0.37990   1.000
    O589    O    0.23878   0.48569   0.38770   1.000
    O590    O    0.49892   0.39213   0.40851   1.000
    O591    O    0.99875   0.89108   0.40921   1.000
    O592    O    0.66413   0.49325   0.43721   1.000
    O593    O    0.16416   0.99083   0.43786   1.000
    O594    O    0.82889   0.49151   0.43927   1.000
    O595    O    0.32900   0.99023   0.43919   1.000
    O596    O    0.84190   0.99679   0.44944   1.000
    O597    O    0.34134   0.49595   0.44975   1.000
    O598    O    0.53826   0.94116   0.41610   1.000
    O599    O    0.48028   0.94753   0.41912   1.000
    O600    O    0.67715   0.99598   0.45765   1.000
    O601    O    0.03723   0.44009   0.41804   1.000
    O602    O    0.97939   0.44703   0.41993   1.000
    O603    O    0.17668   0.49510   0.45848   1.000
    O604    O    0.60555   0.97462   0.46735   1.000
    O605    O    0.10487   0.47374   0.46912   1.000
    O606    O    0.40525   0.98075   0.46284   1.000
    O607    O    0.90467   0.48121   0.46306   1.000
    O608    O    0.52707   0.42281   0.45845   1.000
    O609    O    0.46871   0.42133   0.46019   1.000
    O610    O    0.02699   0.92174   0.45903   1.000
    O611    O    0.96858   0.92065   0.46065   1.000
    O612    O    0.60040   0.46555   0.48343   1.000
    O613    O    0.10054   0.96409   0.48412   1.000
    O614    O    0.39714   0.46506   0.49161   1.000
    O615    O    0.89727   0.96513   0.49160   1.000
    O616    O    0.34125   0.21179   0.48835   1.000
    O617    O    0.73710   0.39503   0.48802   1.000
    O618    O    0.67738   0.45480   0.49019   1.000
    O619    O    0.84151   0.71340   0.48935   1.000
    O620    O    0.34235   0.04792   0.49029   1.000
    O621    O    0.29597   0.10714   0.49142   1.000
    O622    O    0.23800   0.89386   0.48932   1.000
    O623    O    0.17797   0.95342   0.49146   1.000
    O624    O    0.84241   0.54914   0.49058   1.000
    O625    O    0.79638   0.60847   0.49169   1.000
    O626    O    0.33135   0.30057   0.49247   1.000
    O627    O    0.79514   0.39032   0.49039   1.000
    O628    O    0.76044   0.34608   0.49309   1.000
    O629    O    0.84180   0.45097   0.49199   1.000
    O630    O    0.29610   0.88898   0.49087   1.000
    O631    O    0.34244   0.94970   0.49190   1.000
    O632    O    0.83134   0.80209   0.49317   1.000
    O633    O    0.26123   0.84483   0.49393   1.000
    O634    O    0.31222   0.25430   0.49334   1.000
    O635    O    0.28621   0.20418   0.49502   1.000
    O636    O    0.81232   0.75577   0.49388   1.000
    O637    O    0.78644   0.70556   0.49528   1.000
    O638    O    0.39476   0.02624   0.53372   1.000
    O639    O    0.32343   0.00385   0.54434   1.000
    O640    O    0.89491   0.52631   0.53394   1.000
    O641    O    0.82305   0.50501   0.54457   1.000
    O642    O    0.67829   0.54259   0.49894   1.000
    O643    O    0.60256   0.53474   0.50996   1.000
    O644    O    0.65834   0.50395   0.55271   1.000
    O645    O    0.27554   0.29942   0.49951   1.000
    O646    O    0.77546   0.80071   0.49947   1.000
    O647    O    0.17823   0.04110   0.49925   1.000
    O648    O    0.10315   0.03320   0.51144   1.000
    O649    O    0.15879   0.00249   0.55347   1.000
    O650    O    0.26089   0.15182   0.49688   1.000
    O651    O    0.23823   0.10149   0.49928   1.000
    O652    O    0.76121   0.65311   0.49692   1.000
    O653    O    0.73864   0.60280   0.49947   1.000
    O654    O    0.72360   0.29922   0.49714   1.000
    O655    O    0.78654   0.29514   0.49725   1.000
    O656    O    0.16816   0.79869   0.49727   1.000
    O657    O    0.66758   0.29959   0.49740   1.000
    O658    O    0.84185   0.28841   0.49761   1.000
    O659    O    0.22415   0.79810   0.49760   1.000
    O660    O    0.28703   0.79380   0.49833   1.000
    O661    O    0.72371   0.70028   0.50221   1.000
    O662    O    0.22353   0.19917   0.50282   1.000
    O663    O    0.34226   0.78687   0.49919   1.000
    O664    O    0.68748   0.25467   0.50124   1.000
    O665    O    0.18767   0.75370   0.50131   1.000
    O666    O    0.76051   0.89825   0.50249   1.000
    O667    O    0.82134   0.95807   0.50296   1.000
    O668    O    0.81336   0.24652   0.50143   1.000
    O669    O    0.26094   0.39711   0.50327   1.000
    O670    O    0.32140   0.45719   0.50361   1.000
    O671    O    0.31344   0.74508   0.50282   1.000
    O672    O    0.73796   0.84792   0.50500   1.000
    O673    O    0.71273   0.79544   0.50639   1.000
    O674    O    0.65899   0.21278   0.50513   1.000
    O675    O    0.71431   0.20603   0.50539   1.000
    O676    O    0.15885   0.71190   0.50484   1.000
    O677    O    0.21408   0.70498   0.50576   1.000
    O678    O    0.83326   0.20159   0.50523   1.000
    O679    O    0.77725   0.20196   0.50547   1.000
    O680    O    0.23822   0.34679   0.50557   1.000
    O681    O    0.21285   0.29441   0.50734   1.000
    O682    O    0.27696   0.70067   0.50653   1.000
    O683    O    0.33295   0.70008   0.50689   1.000
    O684    O    0.70284   0.89266   0.51074   1.000
    O685    O    0.68685   0.74522   0.50773   1.000
    O686    O    0.66783   0.69888   0.50841   1.000
    O687    O    0.74052   0.15504   0.50934   1.000
    O688    O    0.20319   0.39155   0.51117   1.000
    O689    O    0.82332   0.04589   0.51153   1.000
    O690    O    0.89994   0.03416   0.51903   1.000
    O691    O    0.83575   0.00734   0.56461   1.000
    O692    O    0.18684   0.24429   0.50897   1.000
    O693    O    0.16772   0.19801   0.50984   1.000
    O694    O    0.23977   0.65394   0.51014   1.000
    O695    O    0.32238   0.54493   0.51251   1.000
    O696    O    0.39930   0.53414   0.51883   1.000
    O697    O    0.33588   0.50647   0.56523   1.000
    O698    O    0.65874   0.04986   0.51040   1.000
    O699    O    0.65722   0.95177   0.51178   1.000
    O700    O    0.59500   0.01979   0.53814   1.000
    O701    O    0.67089   0.00937   0.56284   1.000
    O702    O    0.65766   0.78760   0.51230   1.000
    O703    O    0.15801   0.54928   0.51108   1.000
    O704    O    0.15729   0.45100   0.51244   1.000
    O705    O    0.09513   0.51893   0.54004   1.000
    O706    O    0.17112   0.50852   0.56323   1.000
    O707    O    0.15782   0.28680   0.51398   1.000
    O708    O    0.70593   0.11074   0.51216   1.000
    O709    O    0.76406   0.10606   0.51385   1.000
    O710    O    0.20475   0.60985   0.51274   1.000
    O711    O    0.26276   0.60486   0.51510   1.000
    O712    O    0.53104   0.57862   0.54089   1.000
    O713    O    0.03061   0.07745   0.54268   1.000
    O714    O    0.47268   0.57703   0.54331   1.000
    O715    O    0.97226   0.07628   0.54442   1.000
    O716    O    0.50109   0.60812   0.59266   1.000
    O717    O    0.00000   0.10723   0.59405   1.000
    O718    O    0.52004   0.05418   0.58113   1.000
    O719    O    0.02038   0.55298   0.58329   1.000
    O720    O    0.46211   0.06088   0.58424   1.000
    O721    O    0.96252   0.55983   0.58513   1.000
    O722    O    0.49629   0.09553   0.62528   1.000
    O723    O    0.26143   0.01331   0.61519   1.000
    O724    O    0.76082   0.51442   0.61521   1.000
    O725    O    0.99613   0.59437   0.62695   1.000
    O726    O    0.70248   0.51424   0.62277   1.000
    O727    O    0.20316   0.01312   0.62322   1.000
    O728    O    0.22799   0.52107   0.63445   1.000
    O729    O    0.72739   0.02222   0.63434   1.000
    O730    O    0.78580   0.01948   0.63668   1.000
    O731    O    0.28638   0.51838   0.63738   1.000
    O732    O    0.53155   0.63992   0.64557   1.000
    O733    O    0.46846   0.63829   0.64692   1.000
    O734    O    0.03167   0.13849   0.64723   1.000
    O735    O    0.96857   0.13804   0.64789   1.000
    O736    O    0.58740   0.64395   0.64797   1.000
    O737    O    0.73587   0.53443   0.67357   1.000
    O738    O    0.23692   0.03370   0.67365   1.000
    O739    O    0.08808   0.14145   0.65019   1.000
    O740    O    0.41237   0.63952   0.65174   1.000
    O741    O    0.91305   0.14034   0.65207   1.000
    O742    O    0.75397   0.03948   0.69094   1.000
    O743    O    0.25436   0.53863   0.69142   1.000
    O744    O    0.58919   0.12950   0.66719   1.000
    O745    O    0.08856   0.62977   0.66882   1.000
    O746    O    0.53309   0.13104   0.66919   1.000
    O747    O    0.47028   0.13655   0.67456   1.000
    O748    O    0.03244   0.63039   0.67096   1.000
    O749    O    0.96952   0.63485   0.67643   1.000
    O750    O    0.56181   0.66722   0.69761   1.000
    O751    O    0.06245   0.16520   0.69959   1.000
    O752    O    0.43570   0.66395   0.70022   1.000
    O753    O    0.93632   0.16430   0.70083   1.000
    O754    O    0.41515   0.14479   0.68170   1.000
    O755    O    0.91425   0.64213   0.68371   1.000
    O756    O    0.56909   0.16013   0.71516   1.000
    O757    O    0.06808   0.66009   0.71687   1.000
    O758    O    0.44344   0.17075   0.72617   1.000
    O759    O    0.94223   0.66857   0.72812   1.000
    O760    O    0.32883   0.05405   0.72520   1.000
    O761    O    0.82719   0.55183   0.72709   1.000
    O762    O    0.27286   0.05614   0.72665   1.000
    O763    O    0.20994   0.05974   0.73291   1.000
    O764    O    0.77139   0.55556   0.72739   1.000
    O765    O    0.70858   0.56098   0.73239   1.000
    O766    O    0.65321   0.56670   0.74096   1.000
    O767    O    0.78361   0.06109   0.74842   1.000
    O768    O    0.72058   0.06067   0.74927   1.000
    O769    O    0.28381   0.56045   0.74899   1.000
    O770    O    0.22078   0.56020   0.74955   1.000
    O771    O    0.15452   0.06392   0.74258   1.000
    O772    O    0.58499   0.69150   0.74637   1.000
    O773    O    0.52904   0.69113   0.75179   1.000
    O774    O    0.08556   0.18904   0.74859   1.000
    O775    O    0.02958   0.18968   0.75342   1.000
    O776    O    0.41025   0.68695   0.74997   1.000
    O777    O    0.46602   0.68949   0.75306   1.000
    O778    O    0.91081   0.18776   0.75033   1.000
    O779    O    0.96655   0.18923   0.75400   1.000
    O780    O    0.83936   0.06252   0.75188   1.000
    O781    O    0.33954   0.56173   0.75269   1.000
    O782    O    0.16480   0.56105   0.75436   1.000
    O783    O    0.66460   0.06132   0.75435   1.000
    O784    O    0.30850   0.08350   0.77407   1.000
    O785    O    0.80685   0.58162   0.77570   1.000
    O786    O    0.59739   0.18635   0.75942   1.000
    O787    O    0.54204   0.19181   0.76853   1.000
    O788    O    0.09608   0.68685   0.76099   1.000
    O789    O    0.03539   0.69137   0.77024   1.000
    O790    O    0.68126   0.59293   0.78538   1.000
    O791    O    0.18265   0.09109   0.78633   1.000
    O792    O    0.47920   0.19692   0.77416   1.000
    O793    O    0.42336   0.20041   0.77504   1.000
    O794    O    0.97246   0.69540   0.77602   1.000
    O795    O    0.92178   0.69785   0.77706   1.000
    O796    O    0.81403   0.08577   0.80153   1.000
    O797    O    0.31408   0.58529   0.80217   1.000
    O798    O    0.68790   0.08496   0.80334   1.000
    O799    O    0.18796   0.58477   0.80338   1.000
    O800    O    0.49573   0.71204   0.81025   1.000
    O801    O    0.99594   0.21108   0.81154   1.000
    O802    O    0.51518   0.21810   0.82763   1.000
    O803    O    0.00000   0.71739   0.82936   1.000
    O804    O    0.33662   0.11044   0.81800   1.000
    O805    O    0.28132   0.11737   0.82573   1.000
    O806    O    0.83487   0.60747   0.82043   1.000
    O807    O    0.77978   0.61604   0.82698   1.000
    O808    O    0.71700   0.62192   0.83166   1.000
    O809    O    0.66092   0.62379   0.83306   1.000
    O810    O    0.21840   0.12136   0.83172   1.000
    O811    O    0.16227   0.12148   0.83435   1.000
    O812    O    0.83748   0.10950   0.85025   1.000
    O813    O    0.78142   0.11183   0.85473   1.000
    O814    O    0.33741   0.60917   0.85093   1.000
    O815    O    0.28134   0.61164   0.85512   1.000
    O816    O    0.16237   0.60853   0.85279   1.000
    O817    O    0.21824   0.61137   0.85577   1.000
    O818    O    0.66243   0.10851   0.85291   1.000
    O819    O    0.71832   0.11144   0.85568   1.000
    O820    O    0.25474   0.15806   0.87500   1.000
    O821    O    0.75370   0.65728   0.87594   1.000
    O822    O    0.46403   0.73222   0.86462   1.000
    O823    O    0.52251   0.72973   0.86658   1.000
    O824    O    0.96385   0.23118   0.86555   1.000
    O825    O    0.02225   0.22863   0.86827   1.000
    O826    O    0.54903   0.23812   0.87809   1.000
    O827    O    0.49079   0.23805   0.88630   1.000
    O828    O    0.03878   0.73819   0.87991   1.000
    O829    O    0.98052   0.73717   0.88785   1.000
    O830    O    0.74900   0.14250   0.90887   1.000
    O831    O    0.24872   0.64250   0.90899   1.000
    O832    O    0.41436   0.74382   0.93689   1.000
    O833    O    0.91435   0.24291   0.93755   1.000
    O834    O    0.57921   0.74251   0.93791   1.000
    O835    O    0.07901   0.24096   0.93973   1.000
    O836    O    0.28844   0.19369   0.91552   1.000
    O837    O    0.23038   0.19926   0.91891   1.000
    O838    O    0.78778   0.69135   0.91766   1.000
    O839    O    0.73013   0.69930   0.91934   1.000
    O840    O    0.65527   0.73307   0.96213   1.000
    O841    O    0.15522   0.23154   0.96307   1.000
    O842    O    0.77760   0.17285   0.95865   1.000
    O843    O    0.71923   0.17256   0.96031   1.000
    O844    O    0.27705   0.67341   0.95863   1.000
    O845    O    0.21868   0.67218   0.96043   1.000
    O846    O    0.35053   0.71602   0.98324   1.000
    O847    O    0.85099   0.21512   0.98368   1.000
    O848    O    0.48808   0.64573   0.98648   1.000
    O849    O    0.42796   0.70536   0.98937   1.000
    O850    O    0.98033   0.14428   0.98726   1.000
    O851    O    0.92797   0.20433   0.99010   1.000
    O852    O    0.59139   0.96386   0.98879   1.000
    O853    O    0.09266   0.46290   0.99030   1.000
    O854    O    0.59222   0.80002   0.98986   1.000
    O855    O    0.54582   0.85931   0.99144   1.000
    O856    O    0.54617   0.64090   0.98816   1.000
    O857    O    0.59242   0.70171   0.99010   1.000
    O858    O    0.03838   0.13910   0.98893   1.000
    O859    O    0.09228   0.19975   0.99123   1.000
    O860    O    0.51141   0.59676   0.99125   1.000
    O861    O    0.00000   0.09520   0.99233   1.000
    O862    O    0.09308   0.29847   0.99184   1.000
    O863    O    0.04742   0.35807   0.99336   1.000
    O864    O    0.58176   0.05253   0.99204   1.000
    O865    O    0.08258   0.55150   0.99341   1.000
    O866    O    0.56246   0.00632   0.99298   1.000
    O867    O    0.53627   0.95627   0.99467   1.000
    O868    O    0.06351   0.50525   0.99448   1.000
    O869    O    0.03758   0.45510   0.99624   1.000
    O870    O    0.59270   0.53873   0.99514   1.000
    O871    O    0.53741   0.54573   0.99528   1.000
    O872    O    0.47445   0.55015   0.99577   1.000
    O873    O    0.03299   0.04414   0.99676   1.000
    O874    O    0.97008   0.04875   0.99705   1.000
    O875    O    0.09152   0.03694   0.99680   1.000
    O876    O    0.51079   0.90398   0.99653   1.000
    O877    O    0.41843   0.55086   0.99662   1.000
    O878    O    0.91734   0.04962   0.99770   1.000
    O879    O    0.01228   0.40269   0.99806   1.000
    O880    O    0.49950   0.25236   0.00377   1.000
    O881    O    0.50136   0.75040   0.99333   1.000
    O882    O    0.00154   0.24906   0.99449   1.000
    O883    O    0.99870   0.75109   0.00485   1.000
    O884    O    0.24861   0.50020   0.50853   1.000
    O885    O    0.25146   0.99835   0.49443   1.000
    O886    O    0.75116   0.49973   0.49415   1.000
    O887    O    0.74891   0.00071   0.50782   1.000
loop_
    _geom_bond_atom_site_label_1
    _geom_bond_atom_site_label_2
    _geom_bond_distance
    _geom_bond_site_symmetry_2
    _ccdc_geom_bond_type
    C242   O400      0.73426      .   S
    C254   O400      0.73426      .   S
    C242   O401      0.69874      .   S
    C244   O401      0.69874      .   S
    C242   O402      0.69823      .   S
    C250   O402      0.69823      .   S
    C375   O403      0.63928      .   S
    C253   O403      0.63928      .   S
    C375   O404      1.15732      .   S
    C3     O404      1.15732      .   S
    C254   O405      0.63922      .   S
    C372   O405      0.63922      .   S
    C254   O406      0.63057      .   S
    C370   O406      0.63057      .   S
    C253   O407      0.63000  1_655   S
    C369   O407      0.63000      .   S
    C253   O408      0.73367      .   S
    C241   O408      0.73367      .   S
    C247   O409      0.69806      .   S
    C241   O409      0.69806      .   S
    C247   O410      0.54222      .   S
    C83    O410      0.54222      .   S
    C247   O411      0.68353  1_564   S
    C154   O411      0.68353      .   S
    C246   O412      0.69980      .   S
    C155   O412      0.69980      .   S
    C246   O413      0.53964      .   S
    C82    O413      0.53964      .   S
    C246   O414      0.70567  1_554   S
    C240   O414      0.70567  1_455   S
    C245   O415      0.53976      .   S
    C81    O415      0.53976      .   S
    C245   O416      0.69978      .   S
    C152   O416      0.69978  1_545   S
    C245   O417      0.70413  1_554   S
    C243   O417      0.70413      .   S
    C244   O418      0.54218      .   S
    C80    O418      0.54218      .   S
    C244   O419      0.68699  1_554   S
    C153   O419      0.68699      .   S
    C36    O420      0.54838      .   S
    C152   O420      0.54838      .   S
    C374   O421      1.14755  1_554   S
    C2     O421      1.14755      .   S
    C374   O422      0.63189  1_554   S
    C252   O422      0.63189  1_455   S
    C373   O423      1.14718  1_554   S
    C1     O423      1.14718      .   S
    C373   O424      0.63188  1_554   S
    C255   O424      0.63188      .   S
    C39    O425      0.54839      .   S
    C155   O425      0.54839      .   S
    C372   O426      1.14936      .   S
    C0     O426      1.14936      .   S
    C370   O427      1.16137      .   S
    C10    O427      1.16137      .   S
    C369   O428      1.16381      .   S
    C9     O428      1.16381      .   S
    C241   O429      0.69822  1_655   S
    C249   O429      0.69822      .   S
    C155   O430      0.69336      .   S
    C147   O430      0.69336      .   S
    C9     O431      1.12381      .   S
    C389   O431      1.12381      .   S
    C9     O432      1.18570      .   S
    C353   O432      1.18570      .   S
    C9     O433      1.05556  1_554   S
    C309   O433      1.05556      .   S
    C9     O434      1.12310  1_554   S
    C337   O434      1.12310      .   S
    C9     O435      1.15202  1_554   S
    C325   O435      1.15202      .   S
    C10    O436      1.12302      .   S
    C390   O436      1.12302      .   S
    C10    O437      1.17419      .   S
    C354   O437      1.17419      .   S
    C10    O438      1.06763  1_554   S
    C310   O438      1.06763      .   S
    C10    O439      1.12268  1_554   S
    C338   O439      1.12268      .   S
    C10    O440      1.15102  1_554   S
    C326   O440      1.15102      .   S
    C152   O441      0.69455      .   S
    C144   O441      0.69455      .   S
    C144   O442      0.74668      .   S
    C156   O442      0.74668      .   S
    C144   O443      0.70152  1_554   S
    C150   O443      0.70152      .   S
    C250   O444      0.54476      .   S
    C86    O444      0.54476      .   S
    C250   O445      0.69532  1_554   S
    C151   O445      0.69532      .   S
    C147   O446      0.74701      .   S
    C159   O446      0.74701      .   S
    C147   O447      0.70161  1_654   S
    C149   O447      0.70161      .   S
    C156   O448      0.63896      .   S
    C320   O448      0.63896      .   S
    C156   O449      0.63719      .   S
    C326   O449      0.63719  1_556   S
    C249   O450      0.54475      .   S
    C85    O450      0.54475      .   S
    C249   O451      0.69551      .   S
    C148   O451      0.69551  1_546   S
    C159   O452      0.63877      .   S
    C323   O452      0.63877      .   S
    C159   O453      0.63735  1_655   S
    C325   O453      0.63735  1_556   S
    C0     O454      1.12328      .   S
    C320   O454      1.12328      .   S
    C0     O455      1.09788      .   S
    C384   O455      1.09788      .   S
    C0     O456      1.16866      .   S
    C356   O456      1.16866      .   S
    C0     O457      1.13990  1_554   S
    C304   O457      1.13990      .   S
    C0     O458      1.13079  1_554   S
    C340   O458      1.13079      .   S
    C3     O459      1.12435      .   S
    C323   O459      1.12435      .   S
    C3     O460      1.09957      .   S
    C387   O460      1.09957      .   S
    C3     O461      1.16364      .   S
    C359   O461      1.16364      .   S
    C3     O462      1.13917  1_554   S
    C307   O462      1.13917      .   S
    C3     O463      1.13110  1_554   S
    C343   O463      1.13110      .   S
    C385   O464      0.63623      .   S
    C285   O464      0.63623      .   S
    C385   O465      1.12760      .   S
    C1     O465      1.12760  1_556   S
    C386   O466      0.63641      .   S
    C286   O466      0.63641      .   S
    C386   O467      1.12659      .   S
    C2     O467      1.12659  1_556   S
    C390   O468      0.63822      .   S
    C286   O468      0.63822      .   S
    C389   O469      0.63808      .   S
    C285   O469      0.63808      .   S
    C285   O470      0.74970      .   S
    C269   O470      0.74970      .   S
    C286   O471      0.75005      .   S
    C270   O471      0.75005      .   S
    C384   O472      0.63808      .   S
    C284   O472      0.63808      .   S
    C387   O473      0.63824      .   S
    C287   O473      0.63824      .   S
    C391   O474      0.63411      .   S
    C287   O474      0.63411      .   S
    C391   O475      1.13274      .   S
    C11    O475      1.13274  1_556   S
    C388   O476      0.63452      .   S
    C284   O476      0.63452      .   S
    C388   O477      1.13143      .   S
    C8     O477      1.13143  1_556   S
    C355   O478      0.63669      .   S
    C235   O478      0.63669      .   S
    C355   O479      1.13742      .   S
    C11    O479      1.13742  1_556   S
    C352   O480      0.63641      .   S
    C232   O480      0.63641  1_655   S
    C352   O481      1.13971      .   S
    C8     O481      1.13971  1_556   S
    C287   O482      0.74781      .   S
    C271   O482      0.74781      .   S
    C284   O483      0.74742      .   S
    C268   O483      0.74742      .   S
    C357   O484      0.63996      .   S
    C235   O484      0.63996      .   S
    C357   O485      1.12467      .   S
    C1     O485      1.12467  1_556   S
    C358   O486      0.64002      .   S
    C232   O486      0.64002      .   S
    C358   O487      1.12256      .   S
    C2     O487      1.12256  1_556   S
    C356   O488      0.63570      .   S
    C234   O488      0.63570      .   S
    C359   O489      0.63577      .   S
    C233   O489      0.63577  1_455   S
    C354   O490      0.64121      .   S
    C234   O490      0.64121      .   S
    C353   O491      0.64116      .   S
    C233   O491      0.64116      .   S
    C269   O492      0.70264      .   S
    C273   O492      0.70264      .   S
    C269   O493      0.70213      .   S
    C265   O493      0.70213      .   S
    C270   O494      0.70259      .   S
    C274   O494      0.70259      .   S
    C270   O495      0.70238      .   S
    C266   O495      0.70238      .   S
    C235   O496      0.74577      .   S
    C211   O496      0.74577      .   S
    C97    O497      0.54455      .   S
    C273   O497      0.54455      .   S
    C232   O498      0.74582      .   S
    C208   O498      0.74582      .   S
    C98    O499      0.54458      .   S
    C274   O499      0.54458      .   S
    C94    O500      0.54448      .   S
    C266   O500      0.54448      .   S
    C93    O501      0.54434      .   S
    C265   O501      0.54434      .   S
    C234   O502      0.75001      .   S
    C210   O502      0.75001      .   S
    C233   O503      0.74944      .   S
    C209   O503      0.74944      .   S
    C96    O504      0.54420      .   S
    C272   O504      0.54420      .   S
    C99    O505      0.54410      .   S
    C275   O505      0.54410      .   S
    C271   O506      0.70126      .   S
    C275   O506      0.70126      .   S
    C271   O507      0.70200      .   S
    C267   O507      0.70200      .   S
    C268   O508      0.70153      .   S
    C272   O508      0.70153      .   S
    C268   O509      0.70200      .   S
    C264   O509      0.70200      .   S
    C273   O510      0.69650      .   S
    C277   O510      0.69650      .   S
    C274   O511      0.69674      .   S
    C278   O511      0.69674      .   S
    C266   O512      0.69530      .   S
    C262   O512      0.69530      .   S
    C265   O513      0.69550      .   S
    C261   O513      0.69550      .   S
    C95    O514      0.54542      .   S
    C267   O514      0.54542      .   S
    C92    O515      0.54394      .   S
    C264   O515      0.54394      .   S
    C272   O516      0.69491      .   S
    C276   O516      0.69491      .   S
    C275   O517      0.69523      .   S
    C279   O517      0.69523      .   S
    C267   O518      0.69525      .   S
    C263   O518      0.69525      .   S
    C264   O519      0.69508      .   S
    C260   O519      0.69508      .   S
    C79    O520      0.54439      .   S
    C231   O520      0.54439      .   S
    C211   O521      0.70141      .   S
    C231   O521      0.70141      .   S
    C211   O522      0.70184      .   S
    C213   O522      0.70184      .   S
    C76    O523      0.54435      .   S
    C228   O523      0.54435      .   S
    C208   O524      0.70140  1_655   S
    C228   O524      0.70140      .   S
    C208   O525      0.70143      .   S
    C214   O525      0.70143      .   S
    C210   O526      0.70225      .   S
    C230   O526      0.70225      .   S
    C210   O527      0.70166      .   S
    C212   O527      0.70166      .   S
    C66    O528      0.54357      .   S
    C214   O528      0.54357      .   S
    C65    O529      0.54390      .   S
    C213   O529      0.54390      .   S
    C209   O530      0.70214      .   S
    C229   O530      0.70214      .   S
    C209   O531      0.70158  1_455   S
    C215   O531      0.70158      .   S
    C277   O532      0.54410      .   S
    C101   O532      0.54410      .   S
    C277   O533      0.70156      .   S
    C257   O533      0.70156      .   S
    C278   O534      0.54406      .   S
    C102   O534      0.54406      .   S
    C278   O535      0.70171      .   S
    C258   O535      0.70171      .   S
    C262   O536      0.54387      .   S
    C90    O536      0.54387      .   S
    C262   O537      0.70235      .   S
    C258   O537      0.70235      .   S
    C261   O538      0.54384      .   S
    C89    O538      0.54384      .   S
    C261   O539      0.70234      .   S
    C257   O539      0.70234      .   S
    C78    O540      0.54388      .   S
    C230   O540      0.54388      .   S
    C77    O541      0.54388      .   S
    C229   O541      0.54388      .   S
    C231   O542      0.69512      .   S
    C227   O542      0.69512      .   S
    C64    O543      0.54407      .   S
    C212   O543      0.54407      .   S
    C67    O544      0.54406      .   S
    C215   O544      0.54406      .   S
    C228   O545      0.69534      .   S
    C224   O545      0.69534      .   S
    C276   O546      0.54388      .   S
    C100   O546      0.54388      .   S
    C276   O547      0.70172      .   S
    C256   O547      0.70172      .   S
    C279   O548      0.54386      .   S
    C103   O548      0.54386      .   S
    C279   O549      0.70174      .   S
    C259   O549      0.70174      .   S
    C213   O550      0.69496      .   S
    C217   O550      0.69496      .   S
    C214   O551      0.69537      .   S
    C218   O551      0.69537      .   S
    C263   O552      0.70133      .   S
    C259   O552      0.70133      .   S
    C263   O553      0.54411      .   S
    C91    O553      0.54411      .   S
    C260   O554      0.70139      .   S
    C256   O554      0.70139      .   S
    C260   O555      0.54432      .   S
    C88    O555      0.54432      .   S
    C230   O556      0.69531      .   S
    C226   O556      0.69531      .   S
    C229   O557      0.69473      .   S
    C225   O557      0.69473      .   S
    C212   O558      0.69629      .   S
    C216   O558      0.69629      .   S
    C215   O559      0.69621      .   S
    C219   O559      0.69621      .   S
    C258   O560      0.75067      .   S
    C282   O560      0.75067      .   S
    C257   O561      0.75031      .   S
    C281   O561      0.75031      .   S
    C259   O562      0.74576      .   S
    C283   O562      0.74576      .   S
    C256   O563      0.74537      .   S
    C280   O563      0.74537      .   S
    C227   O564      0.54390      .   S
    C75    O564      0.54390      .   S
    C227   O565      0.70203      .   S
    C223   O565      0.70203      .   S
    C224   O566      0.54395      .   S
    C72    O566      0.54395      .   S
    C224   O567      0.70194      .   S
    C220   O567      0.70194      .   S
    C217   O568      0.70154      .   S
    C223   O568      0.70154      .   S
    C217   O569      0.54421      .   S
    C69    O569      0.54421      .   S
    C218   O570      0.70159      .   S
    C220   O570      0.70159  1_455   S
    C218   O571      0.54419      .   S
    C70    O571      0.54419      .   S
    C226   O572      0.54443      .   S
    C74    O572      0.54443      .   S
    C226   O573      0.70224      .   S
    C222   O573      0.70224      .   S
    C225   O574      0.54451      .   S
    C73    O574      0.54451      .   S
    C225   O575      0.70227      .   S
    C221   O575      0.70227  1_655   S
    C216   O576      0.54455      .   S
    C68    O576      0.54455      .   S
    C216   O577      0.70250      .   S
    C222   O577      0.70250      .   S
    C219   O578      0.54456      .   S
    C71    O578      0.54456      .   S
    C219   O579      0.70243      .   S
    C221   O579      0.70243      .   S
    C223   O580      0.74770      .   S
    C239   O580      0.74770      .   S
    C220   O581      0.74743      .   S
    C236   O581      0.74743      .   S
    C282   O582      0.64126      .   S
    C382   O582      0.64126      .   S
    C282   O583      0.63587      .   S
    C378   O583      0.63587      .   S
    C281   O584      0.64104      .   S
    C381   O584      0.64104      .   S
    C281   O585      0.63595      .   S
    C377   O585      0.63595      .   S
    C283   O586      0.63984      .   S
    C379   O586      0.63984      .   S
    C283   O587      0.63650      .   S
    C383   O587      0.63650      .   S
    C280   O588      0.64000      .   S
    C376   O588      0.64000      .   S
    C280   O589      0.63683      .   S
    C380   O589      0.63683      .   S
    C222   O590      0.74944      .   S
    C238   O590      0.74944      .   S
    C221   O591      0.74910      .   S
    C237   O591      0.74910      .   S
    C382   O592      1.12236      .   S
    C6     O592      1.12236      .   S
    C381   O593      1.12244      .   S
    C5     O593      1.12244      .   S
    C378   O594      1.16715      .   S
    C15    O594      1.16715      .   S
    C377   O595      1.16625      .   S
    C12    O595      1.16625      .   S
    C379   O596      1.12090      .   S
    C14    O596      1.12090  1_545   S
    C376   O597      1.12191      .   S
    C13    O597      1.12191      .   S
    C239   O598      0.63424      .   S
    C363   O598      0.63424      .   S
    C239   O599      0.63848      .   S
    C365   O599      0.63848      .   S
    C383   O600      1.13885      .   S
    C7     O600      1.13885  1_545   S
    C236   O601      0.63422      .   S
    C360   O601      0.63422      .   S
    C236   O602      0.63817  1_455   S
    C366   O602      0.63817      .   S
    C380   O603      1.13907      .   S
    C4     O603      1.13907      .   S
    C363   O604      1.13133      .   S
    C7     O604      1.13133  1_545   S
    C360   O605      1.13248      .   S
    C4     O605      1.13248      .   S
    C365   O606      1.09934      .   S
    C12    O606      1.09934      .   S
    C366   O607      1.09904      .   S
    C15    O607      1.09904      .   S
    C238   O608      0.63789      .   S
    C362   O608      0.63789      .   S
    C238   O609      0.63643      .   S
    C364   O609      0.63643      .   S
    C237   O610      0.63801  1_655   S
    C361   O610      0.63801      .   S
    C237   O611      0.63629      .   S
    C367   O611      0.63629      .   S
    C362   O612      1.11709      .   S
    C6     O612      1.11709      .   S
    C361   O613      1.11675      .   S
    C5     O613      1.11675      .   S
    C364   O614      1.12692      .   S
    C13    O614      1.12692      .   S
    C367   O615      1.13037      .   S
    C14    O615      1.13037  1_545   S
    C56    O616      0.54433      .   S
    C196   O616      0.54433      .   S
    C398   O617      0.63712      .   S
    C302   O617      0.63712      .   S
    C398   O618      1.14830      .   S
    C6     O618      1.14830      .   S
    C59    O619      0.54435      .   S
    C199   O619      0.54435      .   S
    C348   O620      1.12355      .   S
    C12    O620      1.12355  1_565   S
    C348   O621      0.63870      .   S
    C204   O621      0.63870      .   S
    C397   O622      0.63701      .   S
    C301   O622      0.63701      .   S
    C397   O623      1.14693      .   S
    C5     O623      1.14693      .   S
    C351   O624      1.12420      .   S
    C15    O624      1.12420      .   S
    C351   O625      0.63881      .   S
    C207   O625      0.63881      .   S
    C108   O626      0.54471      .   S
    C296   O626      0.54471      .   S
    C302   O627      0.63943      .   S
    C394   O627      0.63943      .   S
    C302   O628      0.74681      .   S
    C290   O628      0.74681      .   S
    C394   O629      1.12596      .   S
    C15    O629      1.12596      .   S
    C393   O630      0.63955      .   S
    C301   O630      0.63955      .   S
    C393   O631      1.12846      .   S
    C12    O631      1.12846      .   S
    C111   O632      0.54483      .   S
    C299   O632      0.54483      .   S
    C301   O633      0.74668      .   S
    C289   O633      0.74668      .   S
    C196   O634      0.69549      .   S
    C296   O634      0.69549      .   S
    C196   O635      0.70259      .   S
    C192   O635      0.70259      .   S
    C199   O636      0.69542      .   S
    C299   O636      0.69542      .   S
    C199   O637      0.70253      .   S
    C195   O637      0.70253      .   S
    C12    O638      1.13455  1_565   S
    C312   O638      1.13455      .   S
    C12    O639      1.13930  1_565   S
    C332   O639      1.13930      .   S
    C15    O640      1.13163      .   S
    C315   O640      1.13163      .   S
    C15    O641      1.14003      .   S
    C335   O641      1.14003      .   S
    C6     O642      1.14354      .   S
    C347   O642      1.14354      .   S
    C6     O643      1.12799      .   S
    C319   O643      1.12799      .   S
    C6     O644      1.12348      .   S
    C331   O644      1.12348      .   S
    C296   O645      0.70158      .   S
    C288   O645      0.70158      .   S
    C299   O646      0.70162      .   S
    C291   O646      0.70162      .   S
    C5     O647      1.14395  1_565   S
    C344   O647      1.14395      .   S
    C5     O648      1.12714  1_565   S
    C316   O648      1.12714      .   S
    C5     O649      1.12284  1_565   S
    C328   O649      1.12284      .   S
    C204   O650      0.74665      .   S
    C192   O650      0.74665      .   S
    C204   O651      0.63718      .   S
    C344   O651      0.63718      .   S
    C207   O652      0.74664      .   S
    C195   O652      0.74664      .   S
    C207   O653      0.63719      .   S
    C347   O653      0.63719      .   S
    C290   O654      0.70145      .   S
    C294   O654      0.70145      .   S
    C290   O655      0.70261      .   S
    C298   O655      0.70261      .   S
    C105   O656      0.54473      .   S
    C293   O656      0.54473      .   S
    C106   O657      0.54478      .   S
    C294   O657      0.54478      .   S
    C110   O658      0.54428      .   S
    C298   O658      0.54428      .   S
    C289   O659      0.70148      .   S
    C293   O659      0.70148      .   S
    C289   O660      0.70249      .   S
    C297   O660      0.70249      .   S
    C195   O661      0.70157      .   S
    C203   O661      0.70157      .   S
    C192   O662      0.70155      .   S
    C200   O662      0.70155      .   S
    C109   O663      0.54435      .   S
    C297   O663      0.54435      .   S
    C294   O664      0.69544      .   S
    C202   O664      0.69544      .   S
    C293   O665      0.69520      .   S
    C201   O665      0.69520      .   S
    C395   O666      0.63727      .   S
    C303   O666      0.63727      .   S
    C395   O667      1.14195      .   S
    C14    O667      1.14195  1_545   S
    C298   O668      0.69526      .   S
    C198   O668      0.69526      .   S
    C392   O669      0.63723      .   S
    C300   O669      0.63723      .   S
    C392   O670      1.14302      .   S
    C13    O670      1.14302      .   S
    C297   O671      0.69541      .   S
    C197   O671      0.69541      .   S
    C291   O672      0.74657      .   S
    C303   O672      0.74657      .   S
    C291   O673      0.70243      .   S
    C295   O673      0.70243      .   S
    C202   O674      0.54431      .   S
    C62    O674      0.54431      .   S
    C202   O675      0.70260      .   S
    C194   O675      0.70260      .   S
    C201   O676      0.54429      .   S
    C61    O676      0.54429      .   S
    C201   O677      0.70248      .   S
    C193   O677      0.70248      .   S
    C198   O678      0.54473      .   S
    C58    O678      0.54473      .   S
    C198   O679      0.70140      .   S
    C194   O679      0.70140      .   S
    C288   O680      0.74664      .   S
    C300   O680      0.74664      .   S
    C288   O681      0.70255      .   S
    C292   O681      0.70255      .   S
    C197   O682      0.70143      .   S
    C193   O682      0.70143      .   S
    C197   O683      0.54476      .   S
    C57    O683      0.54476      .   S
    C303   O684      0.63873      .   S
    C399   O684      0.63873      .   S
    C203   O685      0.69550      .   S
    C295   O685      0.69550      .   S
    C203   O686      0.54481      .   S
    C63    O686      0.54481      .   S
    C194   O687      0.74699      .   S
    C206   O687      0.74699      .   S
    C300   O688      0.63875      .   S
    C396   O688      0.63875      .   S
    C14    O689      1.15062      .   S
    C350   O689      1.15062      .   S
    C14    O690      1.11337      .   S
    C314   O690      1.11337      .   S
    C14    O691      1.12061      .   S
    C334   O691      1.12061      .   S
    C200   O692      0.69545      .   S
    C292   O692      0.69545      .   S
    C200   O693      0.54482      .   S
    C60    O693      0.54482      .   S
    C193   O694      0.74677      .   S
    C205   O694      0.74677      .   S
    C13    O695      1.14814      .   S
    C349   O695      1.14814      .   S
    C13    O696      1.11609      .   S
    C313   O696      1.11609      .   S
    C13    O697      1.12304      .   S
    C333   O697      1.12304      .   S
    C7     O698      1.13213      .   S
    C346   O698      1.13213      .   S
    C7     O699      1.11774  1_545   S
    C399   O699      1.11774      .   S
    C7     O700      1.10081      .   S
    C318   O700      1.10081      .   S
    C7     O701      1.16745      .   S
    C330   O701      1.16745      .   S
    C295   O702      0.54433      .   S
    C107   O702      0.54433      .   S
    C4     O703      1.12755      .   S
    C345   O703      1.12755      .   S
    C4     O704      1.12443      .   S
    C396   O704      1.12443      .   S
    C4     O705      1.09925      .   S
    C317   O705      1.09925      .   S
    C4     O706      1.16066      .   S
    C329   O706      1.16066      .   S
    C292   O707      0.54434      .   S
    C104   O707      0.54434      .   S
    C206   O708      0.63960      .   S
    C346   O708      0.63960      .   S
    C206   O709      0.63684      .   S
    C350   O709      0.63684      .   S
    C345   O710      0.63943      .   S
    C205   O710      0.63943      .   S
    C205   O711      0.63705      .   S
    C349   O711      0.63705      .   S
    C319   O712      0.63652      .   S
    C141   O712      0.63652      .   S
    C316   O713      0.65723      .   S
    C142   O713      0.65723      .   S
    C313   O714      0.63769      .   S
    C141   O714      0.63769      .   S
    C314   O715      0.61660      .   S
    C142   O715      0.61660  1_455   S
    C141   O716      0.74937      .   S
    C125   O716      0.74937      .   S
    C142   O717      0.74926      .   S
    C126   O717      0.74926      .   S
    C318   O718      0.63831      .   S
    C140   O718      0.63831      .   S
    C317   O719      0.63813      .   S
    C143   O719      0.63813  1_655   S
    C312   O720      0.63422      .   S
    C140   O720      0.63422      .   S
    C315   O721      0.63432      .   S
    C143   O721      0.63432      .   S
    C140   O722      0.74732      .   S
    C124   O722      0.74732      .   S
    C332   O723      0.63656      .   S
    C184   O723      0.63656      .   S
    C335   O724      0.63662      .   S
    C187   O724      0.63662      .   S
    C143   O725      0.74741      .   S
    C127   O725      0.74741      .   S
    C331   O726      0.63994      .   S
    C187   O726      0.63994      .   S
    C328   O727      0.63994      .   S
    C184   O727      0.63994      .   S
    C329   O728      0.63855      .   S
    C185   O728      0.63855      .   S
    C330   O729      0.63571      .   S
    C186   O729      0.63571      .   S
    C334   O730      0.64112      .   S
    C186   O730      0.64112      .   S
    C333   O731      0.64090      .   S
    C185   O731      0.64090      .   S
    C125   O732      0.70245      .   S
    C123   O732      0.70245      .   S
    C125   O733      0.70228      .   S
    C129   O733      0.70228      .   S
    C126   O734      0.71164      .   S
    C120   O734      0.71164      .   S
    C126   O735      0.69308  1_455   S
    C130   O735      0.69308      .   S
    C23    O736      0.54460      .   S
    C123   O736      0.54460      .   S
    C187   O737      0.74584      .   S
    C163   O737      0.74584      .   S
    C184   O738      0.74596      .   S
    C160   O738      0.74596      .   S
    C20    O739      0.54453      .   S
    C120   O739      0.54453      .   S
    C25    O740      0.54439      .   S
    C129   O740      0.54439      .   S
    C26    O741      0.54443      .   S
    C130   O741      0.54443      .   S
    C186   O742      0.74987      .   S
    C162   O742      0.74987      .   S
    C185   O743      0.75036      .   S
    C161   O743      0.75036      .   S
    C22    O744      0.54384      .   S
    C122   O744      0.54384      .   S
    C21    O745      0.54420      .   S
    C121   O745      0.54420      .   S
    C124   O746      0.70123      .   S
    C122   O746      0.70123      .   S
    C124   O747      0.70201      .   S
    C128   O747      0.70201      .   S
    C127   O748      0.70158  1_655   S
    C121   O748      0.70158      .   S
    C127   O749      0.70192      .   S
    C131   O749      0.70192      .   S
    C123   O750      0.69641      .   S
    C119   O750      0.69641      .   S
    C120   O751      0.69634      .   S
    C116   O751      0.69634      .   S
    C129   O752      0.69514      .   S
    C133   O752      0.69514      .   S
    C130   O753      0.69509      .   S
    C134   O753      0.69509      .   S
    C24    O754      0.54396      .   S
    C128   O754      0.54396      .   S
    C27    O755      0.54397      .   S
    C131   O755      0.54397      .   S
    C122   O756      0.69538      .   S
    C118   O756      0.69538      .   S
    C121   O757      0.69492      .   S
    C117   O757      0.69492      .   S
    C128   O758      0.69526      .   S
    C132   O758      0.69526      .   S
    C131   O759      0.69516      .   S
    C135   O759      0.69516      .   S
    C40    O760      0.54432      .   S
    C164   O760      0.54432      .   S
    C43    O761      0.54437      .   S
    C167   O761      0.54437      .   S
    C160   O762      0.70142      .   S
    C164   O762      0.70142      .   S
    C160   O763      0.70173      .   S
    C180   O763      0.70173      .   S
    C163   O764      0.70138      .   S
    C167   O764      0.70138      .   S
    C163   O765      0.70171      .   S
    C183   O765      0.70171      .   S
    C55    O766      0.54384      .   S
    C183   O766      0.54384      .   S
    C162   O767      0.70223      .   S
    C166   O767      0.70223      .   S
    C162   O768      0.70157      .   S
    C182   O768      0.70157      .   S
    C161   O769      0.70229      .   S
    C165   O769      0.70229      .   S
    C161   O770      0.70153      .   S
    C181   O770      0.70153      .   S
    C52    O771      0.54391      .   S
    C180   O771      0.54391      .   S
    C119   O772      0.54409      .   S
    C19    O772      0.54409      .   S
    C119   O773      0.70168      .   S
    C113   O773      0.70168      .   S
    C116   O774      0.54404      .   S
    C16    O774      0.54404      .   S
    C116   O775      0.70148      .   S
    C114   O775      0.70148  1_655   S
    C133   O776      0.54388      .   S
    C29    O776      0.54388      .   S
    C133   O777      0.70215      .   S
    C113   O777      0.70215      .   S
    C134   O778      0.54383      .   S
    C30    O778      0.54383      .   S
    C134   O779      0.70229      .   S
    C114   O779      0.70229      .   S
    C42    O780      0.54383      .   S
    C166   O780      0.54383      .   S
    C41    O781      0.54389      .   S
    C165   O781      0.54389      .   S
    C53    O782      0.54409      .   S
    C181   O782      0.54409      .   S
    C54    O783      0.54405      .   S
    C182   O783      0.54405      .   S
    C164   O784      0.69497      .   S
    C168   O784      0.69497      .   S
    C167   O785      0.69478      .   S
    C171   O785      0.69478      .   S
    C118   O786      0.54384      .   S
    C18    O786      0.54384      .   S
    C118   O787      0.70175      .   S
    C112   O787      0.70175      .   S
    C117   O788      0.54389      .   S
    C17    O788      0.54389      .   S
    C117   O789      0.78563      .   S
    C115   O789      0.78563      .   S
    C183   O790      0.69486      .   S
    C179   O790      0.69486      .   S
    C180   O791      0.69493      .   S
    C176   O791      0.69493      .   S
    C132   O792      0.70134      .   S
    C112   O792      0.70134      .   S
    C132   O793      0.54437      .   S
    C28    O793      0.54437      .   S
    C135   O794      0.61086      .   S
    C115   O794      0.61086  1_455   S
    C135   O795      0.54430      .   S
    C31    O795      0.54430      .   S
    C166   O796      0.69451      .   S
    C170   O796      0.69451      .   S
    C165   O797      0.69508      .   S
    C169   O797      0.69508      .   S
    C182   O798      0.69640      .   S
    C178   O798      0.69640      .   S
    C181   O799      0.69636      .   S
    C177   O799      0.69636      .   S
    C113   O800      0.74993      .   S
    C137   O800      0.74993      .   S
    C114   O801      0.74978      .   S
    C138   O801      0.74978      .   S
    C112   O802      0.74564      .   S
    C136   O802      0.74564      .   S
    C115   O803      0.74180      .   S
    C139   O803      0.74180      .   S
    C168   O804      0.54374      .   S
    C44    O804      0.54374      .   S
    C168   O805      0.70203      .   S
    C172   O805      0.70203      .   S
    C171   O806      0.54414      .   S
    C47    O806      0.54414      .   S
    C171   O807      0.70223      .   S
    C175   O807      0.70223      .   S
    C179   O808      0.70149      .   S
    C175   O808      0.70149      .   S
    C179   O809      0.54416      .   S
    C51    O809      0.54416      .   S
    C176   O810      0.70161      .   S
    C172   O810      0.70161      .   S
    C176   O811      0.54411      .   S
    C48    O811      0.54411      .   S
    C170   O812      0.54444      .   S
    C46    O812      0.54444      .   S
    C170   O813      0.70250      .   S
    C174   O813      0.70250      .   S
    C169   O814      0.54448      .   S
    C45    O814      0.54448      .   S
    C169   O815      0.70216      .   S
    C173   O815      0.70216      .   S
    C177   O816      0.54454      .   S
    C49    O816      0.54454      .   S
    C177   O817      0.70252      .   S
    C173   O817      0.70252      .   S
    C178   O818      0.54458      .   S
    C50    O818      0.54458      .   S
    C178   O819      0.70251      .   S
    C174   O819      0.70251      .   S
    C172   O820      0.74743      .   S
    C188   O820      0.74743      .   S
    C175   O821      0.74733      .   S
    C191   O821      0.74733      .   S
    C137   O822      0.64130      .   S
    C305   O822      0.64130      .   S
    C137   O823      0.63569      .   S
    C311   O823      0.63569      .   S
    C138   O824      0.64117      .   S
    C306   O824      0.64117      .   S
    C138   O825      0.63577  1_655   S
    C308   O825      0.63577      .   S
    C136   O826      0.63998      .   S
    C310   O826      0.63998      .   S
    C136   O827      0.63656      .   S
    C304   O827      0.63656      .   S
    C139   O828      0.78840      .   S
    C309   O828      0.78840      .   S
    C139   O829      0.51661  1_455   S
    C307   O829      0.51661      .   S
    C174   O830      0.74923      .   S
    C190   O830      0.74923      .   S
    C173   O831      0.74921      .   S
    C189   O831      0.74921      .   S
    C305   O832      1.12064      .   S
    C1     O832      1.12064      .   S
    C306   O833      1.12046      .   S
    C2     O833      1.12046      .   S
    C311   O834      1.16901      .   S
    C11    O834      1.16901      .   S
    C308   O835      1.16761      .   S
    C8     O835      1.16761      .   S
    C188   O836      0.63441      .   S
    C340   O836      0.63441      .   S
    C188   O837      0.63812      .   S
    C336   O837      0.63812      .   S
    C191   O838      0.63415      .   S
    C343   O838      0.63415      .   S
    C191   O839      0.63831      .   S
    C339   O839      0.63831      .   S
    C339   O840      1.09803      .   S
    C11    O840      1.09803      .   S
    C336   O841      1.09860      .   S
    C8     O841      1.09860      .   S
    C190   O842      0.63786      .   S
    C342   O842      0.63786      .   S
    C190   O843      0.63629      .   S
    C338   O843      0.63629      .   S
    C189   O844      0.63797      .   S
    C341   O844      0.63797      .   S
    C189   O845      0.63620      .   S
    C337   O845      0.63620      .   S
    C341   O846      1.11662      .   S
    C1     O846      1.11662      .   S
    C342   O847      1.11634      .   S
    C2     O847      1.11634      .   S
    C321   O848      0.63695      .   S
    C157   O848      0.63695      .   S
    C321   O849      1.14811      .   S
    C1     O849      1.14811      .   S
    C322   O850      0.52682      .   S
    C158   O850      0.52682  1_455   S
    C322   O851      1.14975      .   S
    C2     O851      1.14975      .   S
    C87    O852      0.54431      .   S
    C251   O852      0.54431      .   S
    C84    O853      0.54435      .   S
    C248   O853      0.54435      .   S
    C371   O854      1.12235      .   S
    C11    O854      1.12235      .   S
    C371   O855      0.63889      .   S
    C255   O855      0.63889      .   S
    C327   O856      0.63954      .   S
    C157   O856      0.63954      .   S
    C327   O857      1.12657      .   S
    C11    O857      1.12657      .   S
    C324   O858      0.77241      .   S
    C158   O858      0.77241      .   S
    C324   O859      1.12726      .   S
    C8     O859      1.12726      .   S
    C157   O860      0.74625      .   S
    C145   O860      0.74625      .   S
    C158   O861      0.74384      .   S
    C146   O861      0.74384      .   S
    C368   O862      1.12417      .   S
    C8     O862      1.12417      .   S
    C368   O863      0.63898      .   S
    C252   O863      0.63898      .   S
    C34    O864      0.54479      .   S
    C150   O864      0.54479      .   S
    C33    O865      0.54482      .   S
    C149   O865      0.54482      .   S
    C251   O866      0.69554  1_565   S
    C150   O866      0.69554      .   S
    C251   O867      0.70260      .   S
    C243   O867      0.70260      .   S
    C248   O868      0.69556      .   S
    C149   O868      0.69556      .   S
    C248   O869      0.70261      .   S
    C240   O869      0.70261      .   S
    C35    O870      0.54430      .   S
    C151   O870      0.54430      .   S
    C145   O871      0.70266      .   S
    C151   O871      0.70266      .   S
    C145   O872      0.70146      .   S
    C153   O872      0.70146      .   S
    C146   O873      0.75523      .   S
    C148   O873      0.75523      .   S
    C146   O874      0.64515  1_455   S
    C154   O874      0.64515      .   S
    C32    O875      0.54429      .   S
    C148   O875      0.54429      .   S
    C255   O876      0.74672      .   S
    C243   O876      0.74672      .   S
    C37    O877      0.54473      .   S
    C153   O877      0.54473      .   S
    C38    O878      0.54476      .   S
    C154   O878      0.54476      .   S
    C252   O879      0.74688      .   S
    C240   O879      0.74688      .   S
    C0     O880      2.04123      .   S
    C10    O880      2.04123      .   S
    C1     O881      2.04429      .   S
    C11    O881      2.04429      .   S
    C2     O882      2.04252  1_655   S
    C8     O882      2.04252      .   S
    C3     O883      2.04322      .   S
    C9     O883      2.04322  1_455   S
    C4     O884      2.04419      .   S
    C13    O884      2.04419      .   S
    C5     O885      2.04433      .   S
    C12    O885      2.04433      .   S
    C6     O886      2.04470      .   S
    C15    O886      2.04470      .   S
    C7     O887      2.04597      .   S
    C14    O887      2.04597      .   S
