# CIF file generated by openbabel 2.4.90, see http://openbabel.sf.net
data_I
_chemical_name_common ''
_cell_length_a 18.591
_cell_length_b 14.43
_cell_length_c 17.459
_cell_angle_alpha 99.039
_cell_angle_beta 89.947
_cell_angle_gamma 108.708
_space_group_name_H-M_alt 'P 1'
_space_group_name_Hall 'P 1'
loop_
    _symmetry_equiv_pos_as_xyz
    x,y,z
loop_
    _atom_site_label
    _atom_site_type_symbol
    _atom_site_fract_x
    _atom_site_fract_y
    _atom_site_fract_z
    _atom_site_occupancy
    C0      C    0.36796   0.41287   0.41660   1.000
    C1      C    0.86796   0.41287   0.41660   1.000
    C2      C    0.36166   0.64492   0.43195   1.000
    C3      C    0.86166   0.64492   0.43195   1.000
    C4      C    0.44383   0.67648   0.27476   1.000
    C5      C    0.94383   0.67649   0.27477   1.000
    C6      C    0.07350   0.56025   0.36807   1.000
    C7      C    0.57351   0.56026   0.36807   1.000
    C8      C    0.16117   0.58681   0.08310   1.000
    C9      C    0.66118   0.58682   0.08310   1.000
    C10     C    0.03966   0.35473   0.06780   1.000
    C11     C    0.53967   0.35473   0.06780   1.000
    C12     C    0.10577   0.32282   0.22470   1.000
    C13     C    0.60578   0.32282   0.22475   1.000
    C14     C    0.29382   0.43915   0.13158   1.000
    C15     C    0.79382   0.43916   0.13158   1.000
    C16     C    0.13206   0.58715   0.58339   1.000
    C17     C    0.63206   0.58715   0.58339   1.000
    C18     C    0.13836   0.35510   0.56803   1.000
    C19     C    0.63837   0.35510   0.56803   1.000
    C20     C    0.05618   0.32350   0.72520   1.000
    C21     C    0.55619   0.32350   0.72520   1.000
    C22     C    0.42651   0.43975   0.63193   1.000
    C23     C    0.92651   0.43975   0.63193   1.000
    C24     C    0.33883   0.41318   0.91689   1.000
    C25     C    0.83884   0.41318   0.91689   1.000
    C26     C    0.46034   0.64527   0.93219   1.000
    C27     C    0.96035   0.64528   0.93219   1.000
    C28     C    0.39422   0.67718   0.77524   1.000
    C29     C    0.89424   0.67718   0.77525   1.000
    C30     C    0.20619   0.56083   0.86842   1.000
    C31     C    0.70620   0.56084   0.86842   1.000
