# CIF file generated by openbabel 2.4.90, see http://openbabel.sf.net
data_I
_chemical_name_common ''
_cell_length_a 18.591
_cell_length_b 14.43
_cell_length_c 17.459
_cell_angle_alpha 99.039
_cell_angle_beta 89.947
_cell_angle_gamma 108.708
_space_group_name_H-M_alt 'P 1'
_space_group_name_Hall 'P 1'
loop_
    _symmetry_equiv_pos_as_xyz
    x,y,z
loop_
    _atom_site_label
    _atom_site_type_symbol
    _atom_site_fract_x
    _atom_site_fract_y
    _atom_site_fract_z
    _atom_site_occupancy
    N0      N    0.45303   0.56761   0.34832   1.000
    N1      N    0.16941   0.43166   0.15112   1.000
    N2      N    0.28377   0.01514   0.13451   1.000
    N3      N    0.22346   0.01541   0.63417   1.000
    N4      N    0.78377   0.01514   0.13451   1.000
    N5      N    0.95303   0.56761   0.34833   1.000
    N6      N    0.77657   0.98460   0.36581   1.000
    N7      N    0.27655   0.98460   0.36580   1.000
    N8      N    0.33059   0.56832   0.84886   1.000
    N9      N    0.71625   0.98487   0.86546   1.000
    N10     N    0.04699   0.43239   0.65165   1.000
    N11     N    0.21625   0.98487   0.86547   1.000
    N12     N    0.72347   0.01541   0.63418   1.000
    N13     N    0.54699   0.43239   0.65164   1.000
    N14     N    0.83060   0.56833   0.84888   1.000
    N15     N    0.66942   0.43167   0.15111   1.000
    Zr16    Zr   0.00001   0.50001   0.49999   1.000
    O17     O    0.06772   0.67457   0.64111   1.000
    O18     O    0.88814   0.31404   0.47131   1.000
    O19     O    0.92521   0.55747   0.66467   1.000
    O20     O    0.07481   0.44254   0.33532   1.000
    O21     O    0.21091   0.54684   0.44131   1.000
    O22     O    0.78911   0.45317   0.55867   1.000
    O23     O    0.11188   0.68597   0.52868   1.000
    O24     O    0.93230   0.32544   0.35887   1.000
    Zr25    Zr   0.25000   0.49999   0.99999   1.000
    O26     O    0.23049   0.32567   0.85884   1.000
    O27     O    0.26930   0.31402   0.97111   1.000
    O28     O    0.26951   0.67433   0.14114   1.000
    O29     O    0.43764   0.45285   0.05844   1.000
    O30     O    0.06237   0.54715   0.94155   1.000
    O31     O    0.14677   0.44289   0.83557   1.000
    O32     O    0.35324   0.55710   0.16440   1.000
    O33     O    0.23071   0.68598   0.02886   1.000
    Zr34    Zr   0.75001   0.50000   0.99999   1.000
    O35     O    0.73071   0.68598   0.02887   1.000
    O36     O    0.93764   0.45285   0.05844   1.000
    O37     O    0.76930   0.31402   0.97112   1.000
    O38     O    0.73050   0.32568   0.85884   1.000
    O39     O    0.64677   0.44289   0.83557   1.000
    O40     O    0.76952   0.67433   0.14115   1.000
    O41     O    0.56237   0.54715   0.94155   1.000
    O42     O    0.85325   0.55711   0.16441   1.000
    Zr43    Zr   0.50001   0.50001   0.49999   1.000
    O44     O    0.57481   0.44254   0.33532   1.000
    O45     O    0.43230   0.32544   0.35887   1.000
    O46     O    0.28910   0.45317   0.55867   1.000
    O47     O    0.71091   0.54684   0.44131   1.000
    O48     O    0.61189   0.68597   0.52868   1.000
    O49     O    0.38814   0.31404   0.47130   1.000
    O50     O    0.56772   0.67457   0.64110   1.000
    O51     O    0.42520   0.55746   0.66466   1.000
    O52     O    0.51639   0.48432   0.57578   1.000
    O53     O    0.72587   0.49345   0.07660   1.000
    O54     O    0.77417   0.51602   0.92445   1.000
    O55     O    0.48363   0.51569   0.42419   1.000
    O56     O    0.22586   0.49345   0.07660   1.000
    O57     O    0.97896   0.50621   0.42312   1.000
    O58     O    0.27414   0.50654   0.92338   1.000
    O59     O    0.02660   0.49125   0.57283   1.000
loop_
    _geom_bond_atom_site_label_1
    _geom_bond_atom_site_label_2
    _geom_bond_distance
    _geom_bond_site_symmetry_2
    _ccdc_geom_bond_type
    Zr16   O17       3.16563      .   S
    N11    O17       5.44011      .   S
    Zr16   O18       2.78865  1_455   S
    N6     O18       4.60695  1_565   S
    Zr16   O19       3.29701  1_455   S
    N14    O19       3.67008      .   S
    Zr16   O20       3.29707      .   S
    N1     O20       3.66996      .   S
    Zr16   O21       3.92307      .   S
    N0     O21       4.71815      .   S
    Zr16   O22       3.92297  1_455   S
    N13    O22       4.71798      .   S
    Zr16   O23       2.78872      .   S
    N3     O23       4.60697  1_545   S
    Zr16   O24       3.16579  1_455   S
    N4     O24       5.44018      .   S
    Zr25   O26       3.16240      .   S
    N3     O26       5.43639      .   S
    Zr25   O27       2.78870      .   S
    N11    O27       4.60216  1_565   S
    Zr25   O28       3.16244  1_556   S
    N7     O28       5.43647      .   S
    Zr25   O29       3.92692  1_556   S
    N15    O29       4.72136      .   S
    Zr25   O30       3.92681      .   S
    N14    O30       4.72125  1_655   S
    Zr25   O31       3.29474      .   S
    N10    O31       3.66783      .   S
    Zr25   O32       3.29469  1_556   S
    N0     O32       3.66784      .   S
    Zr25   O33       2.78875  1_556   S
    N2     O33       4.60224  1_545   S
    Zr34   O35       2.78875  1_556   S
    N4     O35       4.60217  1_545   S
    Zr34   O36       3.92683  1_556   S
    N1     O36       4.72129  1_455   S
    Zr34   O37       2.78869      .   S
    N9     O37       4.60220  1_565   S
    Zr34   O38       3.16242      .   S
    N12    O38       5.43641      .   S
    Zr34   O39       3.29480      .   S
    N13    O39       3.66796      .   S
    Zr34   O40       3.16250  1_556   S
    N6     O40       5.43642      .   S
    Zr34   O41       3.92692      .   S
    N8     O41       4.72141      .   S
    Zr34   O42       3.29472  1_556   S
    N5     O42       3.66786      .   S
    Zr43   O44       3.29699      .   S
    N15    O44       3.67011      .   S
    Zr43   O45       3.16575      .   S
    N2     O45       5.44011      .   S
    Zr43   O46       3.92303      .   S
    N10    O46       4.71802      .   S
    Zr43   O47       3.92307      .   S
    N5     O47       4.71808      .   S
    Zr43   O48       2.78877      .   S
    N12    O48       4.60701  1_545   S
    Zr43   O49       2.78869      .   S
    N7     O49       4.60702  1_565   S
    Zr43   O50       3.16562      .   S
    N9     O50       5.44012      .   S
    Zr43   O51       3.29700      .   S
    N8     O51       3.67001      .   S
    N13    O52       1.79609      .   S
    Zr43   O52       1.42619      .   S
    N15    O53       1.83030      .   S
    Zr34   O53       1.41799  1_556   S
    N14    O54       1.79271      .   S
    Zr34   O54       1.42223      .   S
    N0     O55       1.79619      .   S
    Zr43   O55       1.42626      .   S
    N1     O56       1.83042      .   S
    Zr25   O56       1.41807  1_556   S
    N5     O57       1.83321      .   S
    Zr16   O57       1.42258  1_455   S
    N8     O58       1.83037      .   S
    Zr25   O58       1.41803      .   S
    N10    O59       1.82583      .   S
    Zr16   O59       1.40316      .   S
