# CIF file generated by openbabel 2.4.90, see http://openbabel.sf.net
data_I
_chemical_name_common ''
_cell_length_a 18.591
_cell_length_b 14.43
_cell_length_c 17.459
_cell_angle_alpha 99.039
_cell_angle_beta 89.947
_cell_angle_gamma 108.708
_space_group_name_H-M_alt 'P 1'
_space_group_name_Hall 'P 1'
loop_
    _symmetry_equiv_pos_as_xyz
    x,y,z
loop_
    _atom_site_label
    _atom_site_type_symbol
    _atom_site_fract_x
    _atom_site_fract_y
    _atom_site_fract_z
    _atom_site_occupancy
    C0      C    0.48760   0.34786   0.33930   1.000
    C1      C    0.98760   0.34785   0.33930   1.000
    C2      C    0.28392   0.34436   0.54646   1.000
    C3      C    0.78393   0.34436   0.54646   1.000
    C4      C    0.31301   0.65152   0.16034   1.000
    C5      C    0.81302   0.65153   0.16034   1.000
    C6      C    0.11059   0.65601   0.95378   1.000
    C7      C    0.61059   0.65602   0.95378   1.000
    C8      C    0.01241   0.65216   0.66062   1.000
    C9      C    0.51242   0.65216   0.66060   1.000
    C10     C    0.21609   0.65566   0.45354   1.000
    C11     C    0.71610   0.65566   0.45354   1.000
    C12     C    0.18699   0.34847   0.83966   1.000
    C13     C    0.68700   0.34848   0.83966   1.000
    C14     C    0.38942   0.34399   0.04620   1.000
    C15     C    0.88942   0.34400   0.04620   1.000
    C16     C    0.07398   0.25056   0.33942   1.000
    C17     C    0.57398   0.25056   0.33942   1.000
    C18     C    0.06244   0.26931   0.43219   1.000
    C19     C    0.56245   0.26931   0.43210   1.000
    C20     C    0.33596   0.47800   0.32478   1.000
    C21     C    0.83596   0.47799   0.32478   1.000
    C22     C    0.45413   0.59643   0.45372   1.000
    C23     C    0.95413   0.59642   0.45373   1.000
    C24     C    0.02150   0.70997   0.37356   1.000
    C25     C    0.52150   0.70997   0.37350   1.000
    C26     C    0.02940   0.56575   0.25516   1.000
    C27     C    0.52940   0.56575   0.25516   1.000
    C28     C    0.31031   0.27591   0.27596   1.000
    C29     C    0.81032   0.27592   0.27595   1.000
    C30     C    0.22275   0.13666   0.18740   1.000
    C31     C    0.72276   0.13667   0.18741   1.000
    C32     C    0.40682   0.01325   0.15267   1.000
    C33     C    0.90681   0.01323   0.15268   1.000
    C34     C    0.48814   0.16155   0.24001   1.000
    C35     C    0.98813   0.16153   0.24002   1.000
    C36     C    0.07376   0.82414   0.06100   1.000
    C37     C    0.57377   0.82414   0.06100   1.000
    C38     C    0.14945   0.97573   0.15280   1.000
    C39     C    0.64945   0.97573   0.15280   1.000
    C40     C    0.35104   0.94219   0.04419   1.000
    C41     C    0.85104   0.94220   0.04410   1.000
    C42     C    0.26731   0.78979   0.96191   1.000
    C43     C    0.76731   0.78979   0.96190   1.000
    C44     C    0.44816   0.74852   0.16030   1.000
    C45     C    0.94817   0.74854   0.16037   1.000
    C46     C    0.42740   0.73066   0.06760   1.000
    C47     C    0.92742   0.73066   0.06766   1.000
    C48     C    0.09691   0.52101   0.17483   1.000
    C49     C    0.59691   0.52102   0.17483   1.000
    C50     C    0.15630   0.40277   0.04567   1.000
    C51     C    0.65631   0.40278   0.04568   1.000
    C52     C    0.16702   0.28928   0.12595   1.000
    C53     C    0.66703   0.28929   0.12595   1.000
    C54     C    0.24648   0.43369   0.24435   1.000
    C55     C    0.74649   0.43370   0.24430   1.000
    C56     C    0.17186   0.72374   0.22513   1.000
    C57     C    0.67187   0.72375   0.22513   1.000
    C58     C    0.15457   0.86339   0.31410   1.000
    C59     C    0.65458   0.86341   0.31415   1.000
    C60     C    0.40023   0.98584   0.34642   1.000
    C61     C    0.90024   0.98583   0.34645   1.000
    C62     C    0.40681   0.83729   0.25875   1.000
    C63     C    0.90682   0.83728   0.25877   1.000
    C64     C    0.16263   0.17643   0.44077   1.000
    C65     C    0.66265   0.17645   0.44076   1.000
    C66     C    0.16189   0.02435   0.34880   1.000
    C67     C    0.66191   0.02437   0.34880   1.000
    C68     C    0.38088   0.05739   0.45510   1.000
    C69     C    0.88088   0.05738   0.45510   1.000
    C70     C    0.37398   0.21032   0.53750   1.000
    C71     C    0.87398   0.21031   0.53753   1.000
    C72     C    0.42603   0.74945   0.66058   1.000
    C73     C    0.92604   0.74945   0.66058   1.000
    C74     C    0.43757   0.73070   0.56781   1.000
    C75     C    0.93758   0.73070   0.56781   1.000
    C76     C    0.16406   0.52200   0.67520   1.000
    C77     C    0.66406   0.52200   0.67520   1.000
    C78     C    0.04589   0.40359   0.54625   1.000
    C79     C    0.54590   0.40359   0.54620   1.000
    C80     C    0.47852   0.29003   0.62640   1.000
    C81     C    0.97852   0.29003   0.62640   1.000
    C82     C    0.47062   0.43423   0.74482   1.000
    C83     C    0.97063   0.43423   0.74482   1.000
    C84     C    0.18970   0.72409   0.72400   1.000
    C85     C    0.68970   0.72409   0.72404   1.000
    C86     C    0.27726   0.86334   0.81257   1.000
    C87     C    0.77726   0.86334   0.81257   1.000
    C88     C    0.09320   0.98677   0.84730   1.000
    C89     C    0.59320   0.98676   0.84732   1.000
    C90     C    0.01188   0.83847   0.75998   1.000
    C91     C    0.51188   0.83846   0.75998   1.000
    C92     C    0.42625   0.17587   0.93890   1.000
    C93     C    0.92625   0.17586   0.93899   1.000
    C94     C    0.35057   0.02428   0.84719   1.000
    C95     C    0.85057   0.02427   0.84700   1.000
    C96     C    0.14898   0.05780   0.95580   1.000
    C97     C    0.64898   0.05781   0.95580   1.000
    C98     C    0.23271   0.21020   0.03809   1.000
    C99     C    0.73271   0.21022   0.03800   1.000
    C100    C    0.05184   0.25142   0.83960   1.000
    C101    C    0.55185   0.25143   0.83960   1.000
    C102    C    0.07257   0.26933   0.93231   1.000
    C103    C    0.57258   0.26934   0.93231   1.000
    C104    C    0.40310   0.47897   0.82516   1.000
    C105    C    0.90311   0.47898   0.82517   1.000
    C106    C    0.34371   0.59721   0.95431   1.000
    C107    C    0.84371   0.59722   0.95432   1.000
    C108    C    0.33298   0.71070   0.87404   1.000
    C109    C    0.83299   0.71071   0.87404   1.000
    C110    C    0.25351   0.56628   0.75564   1.000
    C111    C    0.75352   0.56630   0.75564   1.000
    C112    C    0.32814   0.27628   0.77486   1.000
    C113    C    0.82815   0.27627   0.77488   1.000
    C114    C    0.34545   0.13663   0.68580   1.000
    C115    C    0.84546   0.13662   0.68580   1.000
    C116    C    0.09979   0.01417   0.65355   1.000
    C117    C    0.59980   0.01418   0.65355   1.000
    C118    C    0.09320   0.16272   0.74121   1.000
    C119    C    0.59321   0.16273   0.74121   1.000
    C120    C    0.33739   0.82359   0.55920   1.000
    C121    C    0.83739   0.82357   0.55920   1.000
    C122    C    0.33814   0.97567   0.65117   1.000
    C123    C    0.83814   0.97565   0.65119   1.000
    C124    C    0.11914   0.94263   0.54489   1.000
    C125    C    0.61916   0.94265   0.54480   1.000
    C126    C    0.12604   0.78970   0.46248   1.000
    C127    C    0.62606   0.78972   0.46248   1.000
    C128    C    0.38727   0.48676   0.36002   1.000
    C129    C    0.88727   0.48676   0.36002   1.000
    C130    C    0.41956   0.59458   0.40192   1.000
    C131    C    0.91956   0.59458   0.40193   1.000
    C132    C    0.47604   0.64515   0.34386   1.000
    C133    C    0.97605   0.64515   0.34387   1.000
    C134    C    0.00857   0.56130   0.31380   1.000
    C135    C    0.50858   0.56130   0.31380   1.000
    C136    C    0.36796   0.41287   0.41660   1.000
    C137    C    0.86796   0.41287   0.41660   1.000
    C138    C    0.36166   0.64492   0.43195   1.000
    C139    C    0.86166   0.64492   0.43195   1.000
    C140    C    0.44383   0.67648   0.27476   1.000
    C141    C    0.94383   0.67649   0.27477   1.000
    C142    C    0.07350   0.56025   0.36807   1.000
    C143    C    0.57351   0.56026   0.36807   1.000
    C144    C    0.33014   0.21659   0.24742   1.000
    C145    C    0.83015   0.21660   0.24742   1.000
    C146    C    0.28062   0.13673   0.19745   1.000
    C147    C    0.78063   0.13674   0.19740   1.000
    C148    C    0.30678   0.06075   0.16070   1.000
    C149    C    0.80678   0.06075   0.16075   1.000
    C150    C    0.38307   0.07058   0.17717   1.000
    C151    C    0.88307   0.07057   0.17718   1.000
    C152    C    0.42875   0.15275   0.22721   1.000
    C153    C    0.92875   0.15274   0.22722   1.000
    C154    C    0.13552   0.85371   0.06043   1.000
    C155    C    0.63552   0.85371   0.06043   1.000
    C156    C    0.17842   0.93852   0.11038   1.000
    C157    C    0.67842   0.93852   0.11030   1.000
    C158    C    0.25793   0.97314   0.10724   1.000
    C159    C    0.75793   0.97314   0.10724   1.000
    C160    C    0.29003   0.91923   0.05132   1.000
    C161    C    0.79003   0.91924   0.05131   1.000
    C162    C    0.24382   0.83460   0.00417   1.000
    C163    C    0.74382   0.83461   0.00417   1.000
    C164    C    0.14387   0.51252   0.13940   1.000
    C165    C    0.64388   0.51253   0.13940   1.000
    C166    C    0.12262   0.40472   0.09752   1.000
    C167    C    0.62263   0.40473   0.09752   1.000
    C168    C    0.15381   0.35414   0.15563   1.000
    C169    C    0.65382   0.35414   0.15563   1.000
    C170    C    0.22807   0.43800   0.18564   1.000
    C171    C    0.72808   0.43801   0.18564   1.000
    C172    C    0.16117   0.58681   0.08310   1.000
    C173    C    0.66118   0.58682   0.08310   1.000
    C174    C    0.03966   0.35473   0.06780   1.000
    C175    C    0.53967   0.35473   0.06780   1.000
    C176    C    0.10577   0.32282   0.22470   1.000
    C177    C    0.60578   0.32282   0.22475   1.000
    C178    C    0.29382   0.43915   0.13158   1.000
    C179    C    0.79382   0.43916   0.13158   1.000
    C180    C    0.22146   0.78296   0.25320   1.000
    C181    C    0.72148   0.78297   0.25320   1.000
    C182    C    0.21224   0.86301   0.30345   1.000
    C183    C    0.71225   0.86302   0.30340   1.000
    C184    C    0.27655   0.93885   0.33957   1.000
    C185    C    0.77657   0.93885   0.33958   1.000
    C186    C    0.34772   0.92867   0.32238   1.000
    C187    C    0.84773   0.92866   0.32240   1.000
    C188    C    0.35198   0.84634   0.27215   1.000
    C189    C    0.85199   0.84633   0.27217   1.000
    C190    C    0.20956   0.14660   0.44075   1.000
    C191    C    0.70958   0.14661   0.44075   1.000
    C192    C    0.20971   0.06155   0.39076   1.000
    C193    C    0.70973   0.06156   0.39076   1.000
    C194    C    0.27189   0.02666   0.39324   1.000
    C195    C    0.77191   0.02666   0.39324   1.000
    C196    C    0.33133   0.08056   0.44854   1.000
    C197    C    0.83133   0.08055   0.44856   1.000
    C198    C    0.32779   0.16547   0.49574   1.000
    C199    C    0.82779   0.16547   0.49576   1.000
    C200    C    0.11275   0.51325   0.63997   1.000
    C201    C    0.61275   0.51325   0.63997   1.000
    C202    C    0.08046   0.40543   0.59805   1.000
    C203    C    0.58047   0.40543   0.59805   1.000
    C204    C    0.02397   0.35484   0.65610   1.000
    C205    C    0.52398   0.35484   0.65610   1.000
    C206    C    0.49144   0.43869   0.68618   1.000
    C207    C    0.99145   0.43870   0.68618   1.000
    C208    C    0.13206   0.58715   0.58339   1.000
    C209    C    0.63206   0.58715   0.58339   1.000
    C210    C    0.13836   0.35510   0.56803   1.000
    C211    C    0.63837   0.35510   0.56803   1.000
    C212    C    0.05618   0.32350   0.72520   1.000
    C213    C    0.55619   0.32350   0.72520   1.000
    C214    C    0.42651   0.43975   0.63193   1.000
    C215    C    0.92651   0.43975   0.63193   1.000
    C216    C    0.16987   0.78340   0.75257   1.000
    C217    C    0.66987   0.78341   0.75258   1.000
    C218    C    0.21940   0.86326   0.80254   1.000
    C219    C    0.71940   0.86327   0.80255   1.000
    C220    C    0.19324   0.93926   0.83924   1.000
    C221    C    0.69324   0.93926   0.83925   1.000
    C222    C    0.11695   0.92943   0.82280   1.000
    C223    C    0.61695   0.92943   0.82282   1.000
    C224    C    0.07127   0.84726   0.77278   1.000
    C225    C    0.57127   0.84726   0.77278   1.000
    C226    C    0.36450   0.14630   0.93956   1.000
    C227    C    0.86450   0.14630   0.93956   1.000
    C228    C    0.32160   0.06149   0.88961   1.000
    C229    C    0.82160   0.06149   0.88962   1.000
    C230    C    0.24209   0.02686   0.89275   1.000
    C231    C    0.74209   0.02686   0.89275   1.000
    C232    C    0.20999   0.08077   0.94868   1.000
    C233    C    0.70999   0.08077   0.94867   1.000
    C234    C    0.25620   0.16540   0.99583   1.000
    C235    C    0.75620   0.16540   0.99582   1.000
    C236    C    0.35613   0.48746   0.86050   1.000
    C237    C    0.85614   0.48747   0.86059   1.000
    C238    C    0.37738   0.59526   0.90247   1.000
    C239    C    0.87739   0.59527   0.90247   1.000
    C240    C    0.34619   0.64585   0.84436   1.000
    C241    C    0.84620   0.64585   0.84436   1.000
    C242    C    0.27192   0.56198   0.81435   1.000
    C243    C    0.77193   0.56199   0.81435   1.000
    C244    C    0.33883   0.41318   0.91689   1.000
    C245    C    0.83884   0.41318   0.91689   1.000
    C246    C    0.46034   0.64527   0.93219   1.000
    C247    C    0.96035   0.64528   0.93219   1.000
    C248    C    0.39422   0.67718   0.77524   1.000
    C249    C    0.89424   0.67718   0.77525   1.000
    C250    C    0.20619   0.56083   0.86842   1.000
    C251    C    0.70620   0.56084   0.86842   1.000
    C252    C    0.27854   0.21706   0.74670   1.000
    C253    C    0.77855   0.21706   0.74678   1.000
    C254    C    0.28778   0.13701   0.69654   1.000
    C255    C    0.78779   0.13700   0.69655   1.000
    C256    C    0.22346   0.06117   0.66040   1.000
    C257    C    0.72348   0.06117   0.66040   1.000
    C258    C    0.15230   0.07135   0.67759   1.000
    C259    C    0.65231   0.07135   0.67760   1.000
    C260    C    0.14803   0.15367   0.72782   1.000
    C261    C    0.64804   0.15368   0.72782   1.000
    C262    C    0.29046   0.85342   0.55923   1.000
    C263    C    0.79046   0.85342   0.55925   1.000
    C264    C    0.29031   0.93847   0.60922   1.000
    C265    C    0.79032   0.93846   0.60924   1.000
    C266    C    0.22813   0.97336   0.60675   1.000
    C267    C    0.72814   0.97336   0.60676   1.000
    C268    C    0.16870   0.91946   0.55145   1.000
    C269    C    0.66871   0.91947   0.55145   1.000
    C270    C    0.17223   0.83454   0.50420   1.000
    C271    C    0.67225   0.83456   0.50424   1.000
    C272    C    0.40320   0.22535   0.26267   1.000
    C273    C    0.90320   0.22535   0.26267   1.000
    C274    C    0.16754   0.80154   0.00816   1.000
    C275    C    0.66754   0.80155   0.00816   1.000
    C276    C    0.28997   0.77390   0.23720   1.000
    C277    C    0.78999   0.77390   0.23725   1.000
    C278    C    0.26802   0.19875   0.49239   1.000
    C279    C    0.76803   0.19875   0.49239   1.000
    C280    C    0.09681   0.77465   0.73733   1.000
    C281    C    0.59681   0.77465   0.73733   1.000
    C282    C    0.33248   0.19846   0.99183   1.000
    C283    C    0.83248   0.19846   0.99183   1.000
    C284    C    0.21003   0.22611   0.76274   1.000
    C285    C    0.71004   0.22611   0.76274   1.000
    C286    C    0.23200   0.80127   0.50760   1.000
    C287    C    0.73201   0.80127   0.50760   1.000
    C288    C    0.44486   0.47053   0.30811   1.000
    C289    C    0.94487   0.47052   0.30812   1.000
    C290    C    0.03481   0.25029   0.37989   1.000
    C291    C    0.53481   0.25029   0.37989   1.000
    C292    C    0.40579   0.35449   0.42029   1.000
    C293    C    0.90579   0.35448   0.42029   1.000
    C294    C    0.31208   0.41713   0.45752   1.000
    C295    C    0.81208   0.41713   0.45752   1.000
    C296    C    0.29399   0.60954   0.40051   1.000
    C297    C    0.79400   0.60954   0.40051   1.000
    C298    C    0.38397   0.71824   0.48612   1.000
    C299    C    0.88398   0.71824   0.48610   1.000
    C300    C    0.37393   0.63237   0.25422   1.000
    C301    C    0.87394   0.63237   0.25422   1.000
    C302    C    0.49047   0.74285   0.24286   1.000
    C303    C    0.99047   0.74286   0.24288   1.000
    C304    C    0.12954   0.64174   0.37999   1.000
    C305    C    0.62954   0.64174   0.37999   1.000
    C306    C    0.06870   0.48414   0.39672   1.000
    C307    C    0.56871   0.48414   0.39672   1.000
    C308    C    0.20961   0.52879   0.19105   1.000
    C309    C    0.70962   0.52880   0.19105   1.000
    C310    C    0.40917   0.74921   0.12007   1.000
    C311    C    0.90918   0.74922   0.12008   1.000
    C312    C    0.22804   0.64537   0.07954   1.000
    C313    C    0.72805   0.64538   0.07954   1.000
    C314    C    0.10312   0.58287   0.04252   1.000
    C315    C    0.60313   0.58288   0.04252   1.000
    C316    C    0.48993   0.39058   0.09949   1.000
    C317    C    0.98993   0.39058   0.09949   1.000
    C318    C    0.02498   0.28133   0.01365   1.000
    C319    C    0.52499   0.28134   0.01365   1.000
    C320    C    0.05800   0.36723   0.24537   1.000
    C321    C    0.55801   0.36723   0.24537   1.000
    C322    C    0.11898   0.25622   0.25660   1.000
    C323    C    0.61899   0.25622   0.25660   1.000
    C324    C    0.30946   0.35778   0.11981   1.000
    C325    C    0.80947   0.35779   0.11981   1.000
    C326    C    0.32702   0.51539   0.10310   1.000
    C327    C    0.82703   0.51540   0.10310   1.000
    C328    C    0.05515   0.52947   0.69187   1.000
    C329    C    0.55515   0.52947   0.69186   1.000
    C330    C    0.46520   0.74972   0.62011   1.000
    C331    C    0.96521   0.74972   0.62011   1.000
    C332    C    0.09423   0.64553   0.57972   1.000
    C333    C    0.59423   0.64554   0.57972   1.000
    C334    C    0.18794   0.58290   0.54248   1.000
    C335    C    0.68795   0.58290   0.54248   1.000
    C336    C    0.20602   0.39048   0.59948   1.000
    C337    C    0.70602   0.39048   0.59948   1.000
    C338    C    0.11605   0.28177   0.51386   1.000
    C339    C    0.61605   0.28177   0.51386   1.000
    C340    C    0.12607   0.36764   0.74577   1.000
    C341    C    0.62607   0.36764   0.74577   1.000
    C342    C    0.00955   0.25711   0.75708   1.000
    C343    C    0.50955   0.25711   0.75708   1.000
    C344    C    0.37047   0.35827   0.62000   1.000
    C345    C    0.87047   0.35827   0.62002   1.000
    C346    C    0.43131   0.51587   0.60328   1.000
    C347    C    0.93131   0.51587   0.60329   1.000
    C348    C    0.29039   0.47119   0.80893   1.000
    C349    C    0.79040   0.47120   0.80894   1.000
    C350    C    0.09083   0.25076   0.87991   1.000
    C351    C    0.59084   0.25077   0.87991   1.000
    C352    C    0.27196   0.35463   0.92046   1.000
    C353    C    0.77196   0.35463   0.92046   1.000
    C354    C    0.39688   0.41713   0.95748   1.000
    C355    C    0.89688   0.41713   0.95748   1.000
    C356    C    0.01008   0.60943   0.90050   1.000
    C357    C    0.51009   0.60942   0.90051   1.000
    C358    C    0.47502   0.71868   0.98633   1.000
    C359    C    0.97503   0.71868   0.98630   1.000
    C360    C    0.44200   0.63277   0.75460   1.000
    C361    C    0.94201   0.63277   0.75462   1.000
    C362    C    0.38102   0.74378   0.74338   1.000
    C363    C    0.88103   0.74378   0.74338   1.000
    C364    C    0.19054   0.64220   0.88020   1.000
    C365    C    0.69055   0.64221   0.88020   1.000
    C366    C    0.17299   0.48458   0.89690   1.000
    C367    C    0.67300   0.48459   0.89690   1.000
    O368    O    0.20568   0.81807   0.00617   1.000
    O369    O    0.26692   0.87692   0.02775   1.000
    O370    O    0.25556   0.81219   0.98304   1.000
    O371    O    0.70568   0.81808   0.00617   1.000
    O372    O    0.76693   0.87692   0.02774   1.000
    O373    O    0.75556   0.81220   0.98304   1.000
    O374    O    0.15153   0.82763   0.03430   1.000
    O375    O    0.13906   0.72878   0.98097   1.000
    O376    O    0.65153   0.82763   0.03430   1.000
    O377    O    0.63907   0.72878   0.98097   1.000
    O378    O    0.03232   0.31803   0.04073   1.000
    O379    O    0.53233   0.31804   0.04073   1.000
    O380    O    0.74445   0.18781   0.01691   1.000
    O381    O    0.24446   0.18780   0.01696   1.000
    O382    O    0.13215   0.58484   0.06281   1.000
    O383    O    0.10686   0.61944   0.99815   1.000
    O384    O    0.63216   0.58485   0.06281   1.000
    O385    O    0.60686   0.61945   0.99815   1.000
    O386    O    0.82053   0.93072   0.04771   1.000
    O387    O    0.32053   0.93071   0.04776   1.000
    O388    O    0.13946   0.40375   0.07160   1.000
    O389    O    0.63947   0.40376   0.07160   1.000
    O390    O    0.43967   0.36729   0.07285   1.000
    O391    O    0.34944   0.35089   0.08301   1.000
    O392    O    0.39315   0.38056   0.00184   1.000
    O393    O    0.36095   0.27122   0.01902   1.000
    O394    O    0.93968   0.36729   0.07285   1.000
    O395    O    0.84945   0.35089   0.08301   1.000
    O396    O    0.89315   0.38056   0.00184   1.000
    O397    O    0.86095   0.27123   0.01902   1.000
    O398    O    0.77398   0.94619   0.07928   1.000
    O399    O    0.27398   0.94619   0.07928   1.000
    O400    O    0.10464   0.83892   0.06072   1.000
    O401    O    0.15697   0.89611   0.08541   1.000
    O402    O    0.60464   0.83893   0.06072   1.000
    O403    O    0.65697   0.89611   0.08537   1.000
    O404    O    0.41828   0.73993   0.09384   1.000
    O405    O    0.91830   0.73994   0.09387   1.000
    O406    O    0.08114   0.37973   0.08266   1.000
    O407    O    0.01480   0.37265   0.08365   1.000
    O408    O    0.58115   0.37973   0.08266   1.000
    O409    O    0.51480   0.37266   0.08365   1.000
    O410    O    0.69462   0.61610   0.08132   1.000
    O411    O    0.77054   0.64845   0.11994   1.000
    O412    O    0.19461   0.61609   0.08132   1.000
    O413    O    0.27053   0.64844   0.11994   1.000
    O414    O    0.15252   0.54967   0.11125   1.000
    O415    O    0.65253   0.54968   0.11125   1.000
    O416    O    0.63326   0.45863   0.11846   1.000
    O417    O    0.63823   0.37944   0.12658   1.000
    O418    O    0.13325   0.45862   0.11846   1.000
    O419    O    0.13822   0.37943   0.12658   1.000
    O420    O    0.31042   0.47727   0.11734   1.000
    O421    O    0.32001   0.58346   0.13172   1.000
    O422    O    0.81042   0.47728   0.11734   1.000
    O423    O    0.82002   0.58346   0.13172   1.000
    O424    O    0.71818   0.95583   0.10877   1.000
    O425    O    0.78236   0.01695   0.13400   1.000
    O426    O    0.21817   0.95583   0.10881   1.000
    O427    O    0.28236   0.01694   0.13397   1.000
    O428    O    0.66394   0.95713   0.13155   1.000
    O429    O    0.16394   0.95713   0.13159   1.000
    O430    O    0.30164   0.39846   0.12570   1.000
    O431    O    0.80165   0.39847   0.12570   1.000
    O432    O    0.42866   0.74886   0.14019   1.000
    O433    O    0.92867   0.74888   0.14023   1.000
    O434    O    0.66042   0.32172   0.14079   1.000
    O435    O    0.16041   0.32171   0.14079   1.000
    O436    O    0.26095   0.43857   0.15861   1.000
    O437    O    0.76095   0.43858   0.15861   1.000
    O438    O    0.62040   0.51678   0.15712   1.000
    O439    O    0.67675   0.52067   0.16523   1.000
    O440    O    0.12039   0.51677   0.15712   1.000
    O441    O    0.17674   0.52066   0.16523   1.000
    O442    O    0.39494   0.04192   0.16492   1.000
    O443    O    0.89494   0.04190   0.16493   1.000
    O444    O    0.19094   0.39607   0.17064   1.000
    O445    O    0.12979   0.33848   0.19017   1.000
    O446    O    0.69095   0.39608   0.17064   1.000
    O447    O    0.62980   0.33848   0.19019   1.000
    O448    O    0.30149   0.71271   0.19877   1.000
    O449    O    0.34347   0.64194   0.20728   1.000
    O450    O    0.80150   0.71272   0.19880   1.000
    O451    O    0.84348   0.64195   0.20728   1.000
    O452    O    0.34492   0.06566   0.16894   1.000
    O453    O    0.29370   0.09874   0.17908   1.000
    O454    O    0.84492   0.06566   0.16897   1.000
    O455    O    0.79370   0.09874   0.17908   1.000
    O456    O    0.40591   0.11167   0.20219   1.000
    O457    O    0.90591   0.11165   0.20220   1.000
    O458    O    0.71885   0.48341   0.18835   1.000
    O459    O    0.73729   0.43586   0.21497   1.000
    O460    O    0.21884   0.48339   0.18835   1.000
    O461    O    0.23728   0.43584   0.21500   1.000
    O462    O    0.25169   0.13670   0.19243   1.000
    O463    O    0.75169   0.13671   0.19241   1.000
    O464    O    0.80539   0.17667   0.22241   1.000
    O465    O    0.30538   0.17666   0.22244   1.000
    O466    O    0.08189   0.34502   0.23504   1.000
    O467    O    0.11238   0.28952   0.24065   1.000
    O468    O    0.58189   0.34503   0.23506   1.000
    O469    O    0.61239   0.28952   0.24068   1.000
    O470    O    0.19666   0.75335   0.23917   1.000
    O471    O    0.69667   0.75336   0.23917   1.000
    O472    O    0.45844   0.15715   0.23361   1.000
    O473    O    0.41598   0.18905   0.24494   1.000
    O474    O    0.95844   0.15713   0.23362   1.000
    O475    O    0.91598   0.18904   0.24495   1.000
    O476    O    0.25572   0.77843   0.24520   1.000
    O477    O    0.32097   0.81012   0.25468   1.000
    O478    O    0.75573   0.77844   0.24523   1.000
    O479    O    0.82099   0.81012   0.25471   1.000
    O480    O    0.46715   0.70966   0.25881   1.000
    O481    O    0.96715   0.70967   0.25883   1.000
    O482    O    0.02280   0.35754   0.29234   1.000
    O483    O    0.52280   0.35755   0.29234   1.000
    O484    O    0.36667   0.22097   0.25505   1.000
    O485    O    0.32022   0.24625   0.26169   1.000
    O486    O    0.86667   0.22097   0.25505   1.000
    O487    O    0.82023   0.24626   0.26169   1.000
    O488    O    0.21685   0.82298   0.27833   1.000
    O489    O    0.71686   0.82299   0.27830   1.000
    O490    O    0.40888   0.65443   0.26449   1.000
    O491    O    0.90889   0.65443   0.26450   1.000
    O492    O    0.01898   0.56353   0.28448   1.000
    O493    O    0.51899   0.56353   0.28448   1.000
    O494    O    0.37939   0.84181   0.26545   1.000
    O495    O    0.87941   0.84181   0.26547   1.000
    O496    O    0.44540   0.28660   0.30099   1.000
    O497    O    0.94540   0.28660   0.30099   1.000
    O498    O    0.34985   0.88750   0.29727   1.000
    O499    O    0.84986   0.88750   0.29729   1.000
    O500    O    0.45993   0.66082   0.30931   1.000
    O501    O    0.95994   0.66082   0.30932   1.000
    O502    O    0.68342   0.86321   0.30878   1.000
    O503    O    0.74441   0.90094   0.32149   1.000
    O504    O    0.18340   0.86320   0.30878   1.000
    O505    O    0.24440   0.90093   0.32151   1.000
    O506    O    0.47672   0.51591   0.31096   1.000
    O507    O    0.41606   0.47864   0.33407   1.000
    O508    O    0.97672   0.51591   0.31096   1.000
    O509    O    0.91607   0.47864   0.33407   1.000
    O510    O    0.99231   0.60323   0.32884   1.000
    O511    O    0.04104   0.56078   0.34094   1.000
    O512    O    0.49231   0.60323   0.32883   1.000
    O513    O    0.54104   0.56078   0.34094   1.000
    O514    O    0.31214   0.93376   0.33098   1.000
    O515    O    0.37397   0.95725   0.33440   1.000
    O516    O    0.81215   0.93376   0.33099   1.000
    O517    O    0.87399   0.95724   0.33443   1.000
    O518    O    0.86161   0.48237   0.34240   1.000
    O519    O    0.36161   0.48238   0.34240   1.000
    O520    O    0.52815   0.41600   0.36801   1.000
    O521    O    0.44669   0.35117   0.37980   1.000
    O522    O    0.02815   0.41600   0.36801   1.000
    O523    O    0.94670   0.35117   0.37980   1.000
    O524    O    0.55440   0.25043   0.35966   1.000
    O525    O    0.05439   0.25042   0.35966   1.000
    O526    O    0.27422   0.98275   0.36641   1.000
    O527    O    0.77424   0.98275   0.36641   1.000
    O528    O    0.49877   0.67756   0.35868   1.000
    O529    O    0.44780   0.61987   0.37289   1.000
    O530    O    0.99877   0.67756   0.35872   1.000
    O531    O    0.94780   0.61987   0.37290   1.000
    O532    O    0.68582   0.04297   0.36978   1.000
    O533    O    0.18580   0.04295   0.36978   1.000
    O534    O    0.40341   0.54067   0.38097   1.000
    O535    O    0.37761   0.44982   0.38831   1.000
    O536    O    0.90341   0.54067   0.38098   1.000
    O537    O    0.87762   0.44981   0.38831   1.000
    O538    O    0.60153   0.60100   0.37403   1.000
    O539    O    0.57111   0.52220   0.38240   1.000
    O540    O    0.10152   0.60100   0.37403   1.000
    O541    O    0.07110   0.52220   0.38240   1.000
    O542    O    0.04862   0.25980   0.40604   1.000
    O543    O    0.54863   0.25980   0.40600   1.000
    O544    O    0.17282   0.64870   0.41677   1.000
    O545    O    0.67282   0.64870   0.41677   1.000
    O546    O    0.74082   0.04411   0.39200   1.000
    O547    O    0.70965   0.10408   0.41576   1.000
    O548    O    0.24080   0.04410   0.39200   1.000
    O549    O    0.20964   0.10407   0.41576   1.000
    O550    O    0.30161   0.05361   0.42089   1.000
    O551    O    0.80162   0.05361   0.42090   1.000
    O552    O    0.82783   0.62723   0.41623   1.000
    O553    O    0.75505   0.63260   0.42703   1.000
    O554    O    0.32783   0.62723   0.41623   1.000
    O555    O    0.25504   0.63260   0.42703   1.000
    O556    O    0.39061   0.61975   0.41694   1.000
    O557    O    0.43684   0.59551   0.42782   1.000
    O558    O    0.89061   0.61975   0.41694   1.000
    O559    O    0.93685   0.59550   0.42783   1.000
    O560    O    0.88688   0.38368   0.41845   1.000
    O561    O    0.84002   0.41500   0.43706   1.000
    O562    O    0.38687   0.38368   0.41845   1.000
    O563    O    0.34002   0.41500   0.43706   1.000
    O564    O    0.37281   0.68158   0.45904   1.000
    O565    O    0.87282   0.68158   0.45903   1.000
    O566    O    0.18610   0.16152   0.44076   1.000
    O567    O    0.23879   0.17268   0.46657   1.000
    O568    O    0.68612   0.16153   0.44076   1.000
    O569    O    0.73881   0.17268   0.46657   1.000
    O570    O    0.35610   0.06898   0.45182   1.000
    O571    O    0.32956   0.12302   0.47214   1.000
    O572    O    0.85610   0.06896   0.45183   1.000
    O573    O    0.82956   0.12301   0.47216   1.000
    O574    O    0.72405   0.72847   0.48057   1.000
    O575    O    0.70202   0.61928   0.49801   1.000
    O576    O    0.22404   0.72846   0.48057   1.000
    O577    O    0.20202   0.61928   0.49801   1.000
    O578    O    0.79800   0.38074   0.50199   1.000
    O579    O    0.29800   0.38075   0.50199   1.000
    O580    O    0.14913   0.81212   0.48334   1.000
    O581    O    0.64915   0.81214   0.48336   1.000
    O582    O    0.79791   0.18211   0.49408   1.000
    O583    O    0.77598   0.27156   0.51943   1.000
    O584    O    0.29791   0.18211   0.49407   1.000
    O585    O    0.27597   0.27156   0.51943   1.000
    O586    O    0.35089   0.18790   0.51662   1.000
    O587    O    0.85089   0.18789   0.51665   1.000
    O588    O    0.20211   0.81791   0.50590   1.000
    O589    O    0.17046   0.87700   0.52783   1.000
    O590    O    0.70213   0.81791   0.50592   1.000
    O591    O    0.67048   0.87701   0.52785   1.000
    O592    O    0.76124   0.82734   0.53343   1.000
    O593    O    0.26123   0.82735   0.53342   1.000
    O594    O    0.12720   0.31843   0.54095   1.000
    O595    O    0.62721   0.31844   0.54095   1.000
    O596    O    0.16000   0.58502   0.56293   1.000
    O597    O    0.66001   0.58503   0.56293   1.000
    O598    O    0.64394   0.93106   0.54813   1.000
    O599    O    0.14392   0.93104   0.54817   1.000
    O600    O    0.56318   0.40451   0.57213   1.000
    O601    O    0.06318   0.40451   0.57215   1.000
    O602    O    0.74498   0.36742   0.57297   1.000
    O603    O    0.82720   0.35132   0.58324   1.000
    O604    O    0.24497   0.36742   0.57297   1.000
    O605    O    0.32719   0.35132   0.58323   1.000
    O606    O    0.69843   0.94642   0.57911   1.000
    O607    O    0.19841   0.94641   0.57910   1.000
    O608    O    0.81393   0.83849   0.55923   1.000
    O609    O    0.31392   0.83851   0.55922   1.000
    O610    O    0.29039   0.89595   0.58423   1.000
    O611    O    0.79039   0.89594   0.58425   1.000
    O612    O    0.95140   0.74021   0.59396   1.000
    O613    O    0.45139   0.74021   0.59396   1.000
    O614    O    0.10941   0.38026   0.58304   1.000
    O615    O    0.17219   0.37279   0.58376   1.000
    O616    O    0.60942   0.38027   0.58304   1.000
    O617    O    0.67220   0.37279   0.58376   1.000
    O618    O    0.11314   0.61634   0.58156   1.000
    O619    O    0.05332   0.64884   0.62017   1.000
    O620    O    0.61315   0.61634   0.58156   1.000
    O621    O    0.55333   0.64885   0.62016   1.000
    O622    O    0.62241   0.55020   0.61168   1.000
    O623    O    0.12240   0.55020   0.61168   1.000
    O624    O    0.59661   0.45934   0.61901   1.000
    O625    O    0.55222   0.38014   0.62708   1.000
    O626    O    0.09660   0.45934   0.61901   1.000
    O627    O    0.05221   0.38014   0.62708   1.000
    O628    O    0.42891   0.47781   0.61761   1.000
    O629    O    0.47186   0.58401   0.63194   1.000
    O630    O    0.92891   0.47781   0.61761   1.000
    O631    O    0.97186   0.58401   0.63196   1.000
    O632    O    0.25922   0.95592   0.60798   1.000
    O633    O    0.22580   0.01726   0.63357   1.000
    O634    O    0.75923   0.95591   0.60800   1.000
    O635    O    0.72581   0.01726   0.63358   1.000
    O636    O    0.31423   0.95707   0.63020   1.000
    O637    O    0.81423   0.95706   0.63022   1.000
    O638    O    0.39849   0.39901   0.62597   1.000
    O639    O    0.89849   0.39901   0.62598   1.000
    O640    O    0.44561   0.74959   0.64035   1.000
    O641    O    0.94562   0.74959   0.64035   1.000
    O642    O    0.00125   0.32244   0.64125   1.000
    O643    O    0.50125   0.32244   0.64125   1.000
    O644    O    0.45897   0.43922   0.65906   1.000
    O645    O    0.95898   0.43922   0.65906   1.000
    O646    O    0.63841   0.51763   0.65759   1.000
    O647    O    0.58395   0.52136   0.66592   1.000
    O648    O    0.13840   0.51763   0.65759   1.000
    O649    O    0.08395   0.52136   0.66592   1.000
    O650    O    0.62606   0.04276   0.66558   1.000
    O651    O    0.12604   0.04276   0.66557   1.000
    O652    O    0.50771   0.39677   0.67114   1.000
    O653    O    0.54008   0.33917   0.69065   1.000
    O654    O    0.00771   0.39677   0.67114   1.000
    O655    O    0.04008   0.33917   0.69065   1.000
    O656    O    0.18788   0.06626   0.66900   1.000
    O657    O    0.25562   0.09909   0.67847   1.000
    O658    O    0.68789   0.06626   0.66900   1.000
    O659    O    0.75563   0.09909   0.67848   1.000
    O660    O    0.55462   0.71340   0.69897   1.000
    O661    O    0.47721   0.64246   0.70760   1.000
    O662    O    0.05461   0.71340   0.69898   1.000
    O663    O    0.97721   0.64246   0.70762   1.000
    O664    O    0.15016   0.11251   0.70271   1.000
    O665    O    0.65017   0.11251   0.70271   1.000
    O666    O    0.81662   0.13681   0.69117   1.000
    O667    O    0.31661   0.13682   0.69117   1.000
    O668    O    0.02330   0.48408   0.68903   1.000
    O669    O    0.98104   0.43646   0.71550   1.000
    O670    O    0.52330   0.48408   0.68902   1.000
    O671    O    0.48103   0.43646   0.71550   1.000
    O672    O    0.28316   0.17703   0.72162   1.000
    O673    O    0.78317   0.17703   0.72167   1.000
    O674    O    0.17979   0.75375   0.73829   1.000
    O675    O    0.67979   0.75375   0.73831   1.000
    O676    O    0.59113   0.34557   0.73549   1.000
    O677    O    0.53287   0.29030   0.74114   1.000
    O678    O    0.09113   0.34557   0.73549   1.000
    O679    O    0.03286   0.29030   0.74114   1.000
    O680    O    0.12061   0.15820   0.73452   1.000
    O681    O    0.17903   0.18989   0.74528   1.000
    O682    O    0.62062   0.15820   0.73452   1.000
    O683    O    0.67904   0.18990   0.74528   1.000
    O684    O    0.13334   0.77903   0.74495   1.000
    O685    O    0.08404   0.81095   0.75506   1.000
    O686    O    0.63334   0.77903   0.74496   1.000
    O687    O    0.58404   0.81095   0.75506   1.000
    O688    O    0.88763   0.71048   0.75932   1.000
    O689    O    0.38762   0.71048   0.75931   1.000
    O690    O    0.15653   0.35806   0.79272   1.000
    O691    O    0.65654   0.35806   0.79272   1.000
    O692    O    0.24429   0.22158   0.75472   1.000
    O693    O    0.30334   0.24667   0.76078   1.000
    O694    O    0.74430   0.22159   0.75476   1.000
    O695    O    0.80335   0.24667   0.76083   1.000
    O696    O    0.19463   0.82333   0.77756   1.000
    O697    O    0.69463   0.82334   0.77757   1.000
    O698    O    0.41811   0.65497   0.76492   1.000
    O699    O    0.91812   0.65498   0.76494   1.000
    O700    O    0.26272   0.56413   0.78500   1.000
    O701    O    0.76273   0.56414   0.78500   1.000
    O702    O    0.54157   0.84286   0.76638   1.000
    O703    O    0.04157   0.84286   0.76638   1.000
    O704    O    0.19851   0.28729   0.80120   1.000
    O705    O    0.69852   0.28730   0.80120   1.000
    O706    O    0.09411   0.88834   0.79779   1.000
    O707    O    0.59411   0.88834   0.79780   1.000
    O708    O    0.37021   0.66151   0.80980   1.000
    O709    O    0.87022   0.66152   0.80981   1.000
    O710    O    0.24833   0.86330   0.80756   1.000
    O711    O    0.20632   0.90126   0.82089   1.000
    O712    O    0.74833   0.86330   0.80756   1.000
    O713    O    0.70632   0.90126   0.82090   1.000
    O714    O    0.28116   0.51658   0.81164   1.000
    O715    O    0.32326   0.47932   0.83472   1.000
    O716    O    0.78117   0.51659   0.81165   1.000
    O717    O    0.82327   0.47933   0.83477   1.000
    O718    O    0.30905   0.60391   0.82936   1.000
    O719    O    0.23906   0.56140   0.84139   1.000
    O720    O    0.80906   0.60392   0.82936   1.000
    O721    O    0.73906   0.56141   0.84139   1.000
    O722    O    0.15510   0.93434   0.83102   1.000
    O723    O    0.10508   0.95810   0.83505   1.000
    O724    O    0.65509   0.93434   0.83104   1.000
    O725    O    0.60508   0.95810   0.83507   1.000
    O726    O    0.37962   0.48322   0.84283   1.000
    O727    O    0.87962   0.48322   0.84288   1.000
    O728    O    0.21766   0.98306   0.86600   1.000
    O729    O    0.71766   0.98306   0.86600   1.000
    O730    O    0.07134   0.25109   0.85976   1.000
    O731    O    0.57134   0.25110   0.85976   1.000
    O732    O    0.17999   0.41653   0.86828   1.000
    O733    O    0.22947   0.35155   0.88006   1.000
    O734    O    0.68000   0.41654   0.86828   1.000
    O735    O    0.72948   0.35156   0.88006   1.000
    O736    O    0.83959   0.67828   0.85920   1.000
    O737    O    0.86179   0.62056   0.87342   1.000
    O738    O    0.33958   0.67827   0.85920   1.000
    O739    O    0.36178   0.62056   0.87342   1.000
    O740    O    0.83608   0.04288   0.86831   1.000
    O741    O    0.33609   0.04288   0.86840   1.000
    O742    O    0.36676   0.54136   0.88149   1.000
    O743    O    0.34748   0.45032   0.88870   1.000
    O744    O    0.86676   0.54137   0.88153   1.000
    O745    O    0.84749   0.45033   0.88874   1.000
    O746    O    0.19837   0.60151   0.87431   1.000
    O747    O    0.18959   0.52271   0.88266   1.000
    O748    O    0.69837   0.60152   0.87431   1.000
    O749    O    0.68960   0.52272   0.88266   1.000
    O750    O    0.58171   0.26005   0.90611   1.000
    O751    O    0.08170   0.26005   0.90611   1.000
    O752    O    0.65057   0.64911   0.91699   1.000
    O753    O    0.15057   0.64911   0.91699   1.000
    O754    O    0.28185   0.04417   0.89118   1.000
    O755    O    0.34305   0.10389   0.91459   1.000
    O756    O    0.78184   0.04418   0.89119   1.000
    O757    O    0.84305   0.10389   0.91459   1.000
    O758    O    0.22604   0.05381   0.92072   1.000
    O759    O    0.72604   0.05382   0.92071   1.000
    O760    O    0.98521   0.62735   0.91635   1.000
    O761    O    0.06034   0.63272   0.92714   1.000
    O762    O    0.48521   0.62735   0.91635   1.000
    O763    O    0.56034   0.63272   0.92715   1.000
    O764    O    0.41886   0.62027   0.91733   1.000
    O765    O    0.36054   0.59624   0.92839   1.000
    O766    O    0.91887   0.62027   0.91733   1.000
    O767    O    0.86055   0.59625   0.92840   1.000
    O768    O    0.30539   0.38390   0.91868   1.000
    O769    O    0.36786   0.41515   0.93719   1.000
    O770    O    0.80540   0.38391   0.91868   1.000
    O771    O    0.86786   0.41516   0.93719   1.000
    O772    O    0.46768   0.68198   0.95926   1.000
    O773    O    0.96769   0.68198   0.95925   1.000
    O774    O    0.39538   0.16108   0.93923   1.000
    O775    O    0.89538   0.16108   0.93928   1.000
    O776    O    0.84849   0.17238   0.96570   1.000
    O777    O    0.34849   0.17238   0.96570   1.000
    O778    O    0.67948   0.06929   0.95224   1.000
    O779    O    0.73309   0.12309   0.97225   1.000
    O780    O    0.17949   0.06928   0.95224   1.000
    O781    O    0.23309   0.12308   0.97226   1.000
    O782    O    0.29434   0.18193   0.99383   1.000
    O783    O    0.79434   0.18193   0.99383   1.000
    O784    O    0.46623   0.40919   0.32371   1.000
    O785    O    0.96624   0.40919   0.32371   1.000
    O786    O    0.01120   0.29907   0.35960   1.000
    O787    O    0.51120   0.29907   0.35960   1.000
    O788    O    0.26131   0.59016   0.17570   1.000
    O789    O    0.76132   0.59016   0.17570   1.000
    O790    O    0.36109   0.70036   0.14021   1.000
    O791    O    0.86110   0.70037   0.14021   1.000
    O792    O    0.03378   0.59081   0.67625   1.000
    O793    O    0.53378   0.59081   0.67623   1.000
    O794    O    0.48881   0.70094   0.64036   1.000
    O795    O    0.98881   0.70094   0.64037   1.000
    O796    O    0.23869   0.40983   0.82430   1.000
    O797    O    0.73870   0.40984   0.82430   1.000
    O798    O    0.13891   0.29962   0.85979   1.000
    O799    O    0.63892   0.29963   0.85979   1.000
loop_
    _geom_bond_atom_site_label_1
    _geom_bond_atom_site_label_2
    _geom_bond_distance
    _geom_bond_site_symmetry_2
    _ccdc_geom_bond_type
    C162   O368      0.67451      .   S
    C274   O368      0.67451      .   S
    C162   O369      0.69273      .   S
    C160   O369      0.69273      .   S
    C162   O370      0.54400  1_554   S
    C42    O370      0.54400      .   S
    C163   O371      0.67451      .   S
    C275   O371      0.67451      .   S
    C163   O372      0.69268      .   S
    C161   O372      0.69268      .   S
    C163   O373      0.54405  1_554   S
    C43    O373      0.54405      .   S
    C274   O374      0.67536      .   S
    C154   O374      0.67536      .   S
    C274   O375      1.04660  1_554   S
    C6     O375      1.04660      .   S
    C275   O376      0.67534      .   S
    C155   O376      0.67534      .   S
    C275   O377      1.04661  1_554   S
    C7     O377      1.04661      .   S
    C318   O378      0.63056      .   S
    C174   O378      0.63056      .   S
    C319   O379      0.63056      .   S
    C175   O379      0.63056      .   S
    C99    O380      0.54360      .   S
    C235   O380      0.54360  1_556   S
    C98    O381      0.54398      .   S
    C234   O381      0.54398  1_556   S
    C314   O382      0.63622      .   S
    C172   O382      0.63622      .   S
    C314   O383      0.99412  1_554   S
    C6     O383      0.99412      .   S
    C315   O384      0.63622      .   S
    C173   O384      0.63622      .   S
    C315   O385      0.99411  1_554   S
    C7     O385      0.99411      .   S
    C41    O386      0.54402      .   S
    C161   O386      0.54402      .   S
    C40    O387      0.54392      .   S
    C160   O387      0.54392      .   S
    C50    O388      0.55101      .   S
    C166   O388      0.55101      .   S
    C51    O389      0.55094      .   S
    C167   O389      0.55094      .   S
    C14    O390      0.97595      .   S
    C316   O390      0.97595      .   S
    C14    O391      1.00083      .   S
    C324   O391      1.00083      .   S
    C14    O392      0.99393      .   S
    C354   O392      0.99393  1_556   S
    C14    O393      1.04660      .   S
    C282   O393      1.04660  1_556   S
    C15    O394      0.97596      .   S
    C317   O394      0.97596      .   S
    C15    O395      1.00081      .   S
    C325   O395      1.00081      .   S
    C15    O396      0.99394      .   S
    C355   O396      0.99394  1_556   S
    C15    O397      1.04659      .   S
    C283   O397      1.04659  1_556   S
    C161   O398      0.70227      .   S
    C159   O398      0.70227      .   S
    C160   O399      0.70223      .   S
    C158   O399      0.70223      .   S
    C154   O400      0.54479      .   S
    C36    O400      0.54479      .   S
    C154   O401      0.69537      .   S
    C156   O401      0.69537      .   S
    C155   O402      0.54479      .   S
    C37    O402      0.54479      .   S
    C155   O403      0.69503      .   S
    C157   O403      0.69503      .   S
    C46    O404      0.50159      .   S
    C310   O404      0.50159      .   S
    C47    O405      0.50124      .   S
    C311   O405      0.50124      .   S
    C174   O406      0.76460      .   S
    C166   O406      0.76460      .   S
    C174   O407      0.64120      .   S
    C317   O407      0.64120  1_655   S
    C175   O408      0.76460      .   S
    C167   O408      0.76460      .   S
    C175   O409      0.64130      .   S
    C316   O409      0.64130      .   S
    C313   O410      0.63363      .   S
    C173   O410      0.63363      .   S
    C313   O411      1.04499      .   S
    C5     O411      1.04499      .   S
    C312   O412      0.63363      .   S
    C172   O412      0.63363      .   S
    C312   O413      1.04497      .   S
    C4     O413      1.04497      .   S
    C172   O414      0.76290      .   S
    C164   O414      0.76290      .   S
    C173   O415      0.76290      .   S
    C165   O415      0.76290      .   S
    C167   O416      0.76803      .   S
    C165   O416      0.76803      .   S
    C167   O417      0.77518      .   S
    C169   O417      0.77518      .   S
    C166   O418      0.76802      .   S
    C164   O418      0.76802      .   S
    C166   O419      0.77519      .   S
    C168   O419      0.77519      .   S
    C326   O420      0.62739      .   S
    C178   O420      0.62739      .   S
    C326   O421      1.07656      .   S
    C4     O421      1.07656      .   S
    C327   O422      0.62738      .   S
    C179   O422      0.62738      .   S
    C327   O423      1.07654      .   S
    C5     O423      1.07654      .   S
    C159   O424      0.70217      .   S
    C157   O424      0.70217      .   S
    C159   O425      0.73987  1_565   S
    C149   O425      0.73987      .   S
    C158   O426      0.70223      .   S
    C156   O426      0.70223      .   S
    C158   O427      0.73966  1_565   S
    C148   O427      0.73966      .   S
    C157   O428      0.54507      .   S
    C39    O428      0.54507      .   S
    C156   O429      0.54466      .   S
    C38    O429      0.54466      .   S
    C324   O430      0.64201      .   S
    C178   O430      0.64201      .   S
    C325   O431      0.64201      .   S
    C179   O431      0.64201      .   S
    C310   O432      0.50665      .   S
    C44    O432      0.50665      .   S
    C311   O433      0.50699      .   S
    C45    O433      0.50699      .   S
    C53    O434      0.54758      .   S
    C169   O434      0.54758      .   S
    C52    O435      0.54757      .   S
    C168   O435      0.54757      .   S
    C178   O436      0.77049      .   S
    C170   O436      0.77049      .   S
    C179   O437      0.77048      .   S
    C171   O437      0.77048      .   S
    C165   O438      0.54859      .   S
    C49    O438      0.54859      .   S
    C165   O439      0.72688      .   S
    C309   O439      0.72688      .   S
    C164   O440      0.54859      .   S
    C48    O440      0.54859      .   S
    C164   O441      0.72688      .   S
    C308   O441      0.72688      .   S
    C32    O442      0.54434      .   S
    C150   O442      0.54434      .   S
    C33    O443      0.54434      .   S
    C151   O443      0.54434      .   S
    C168   O444      0.77062      .   S
    C170   O444      0.77062      .   S
    C168   O445      0.76915      .   S
    C176   O445      0.76915      .   S
    C169   O446      0.77062      .   S
    C171   O446      0.77062      .   S
    C169   O447      0.76952      .   S
    C177   O447      0.76952      .   S
    C4     O448      1.10027      .   S
    C276   O448      1.10027      .   S
    C4     O449      1.04788      .   S
    C300   O449      1.04788      .   S
    C5     O450      1.10043      .   S
    C277   O450      1.10043      .   S
    C5     O451      1.04791      .   S
    C301   O451      1.04791      .   S
    C148   O452      0.70232      .   S
    C150   O452      0.70232      .   S
    C148   O453      0.70196      .   S
    C146   O453      0.70196      .   S
    C149   O454      0.70224      .   S
    C151   O454      0.70224      .   S
    C149   O455      0.70168      .   S
    C147   O455      0.70168      .   S
    C150   O456      0.69289      .   S
    C152   O456      0.69289      .   S
    C151   O457      0.69289      .   S
    C153   O457      0.69289      .   S
    C171   O458      0.72333      .   S
    C309   O458      0.72333      .   S
    C171   O459      0.54866      .   S
    C55    O459      0.54866      .   S
    C170   O460      0.72333      .   S
    C308   O460      0.72333      .   S
    C170   O461      0.54908      .   S
    C54    O461      0.54908      .   S
    C30    O462      0.54490      .   S
    C146   O462      0.54490      .   S
    C31    O463      0.54482      .   S
    C147   O463      0.54482      .   S
    C147   O464      0.69692      .   S
    C145   O464      0.69692      .   S
    C146   O465      0.69671      .   S
    C144   O465      0.69671      .   S
    C176   O466      0.63672      .   S
    C320   O466      0.63672      .   S
    C176   O467      0.63520      .   S
    C322   O467      0.63520      .   S
    C177   O468      0.63663      .   S
    C321   O468      0.63663      .   S
    C177   O469      0.63497      .   S
    C323   O469      0.63497      .   S
    C56    O470      0.54419      .   S
    C180   O470      0.54419      .   S
    C57    O471      0.54418      .   S
    C181   O471      0.54418      .   S
    C152   O472      0.54467      .   S
    C34    O472      0.54467      .   S
    C152   O473      0.67479      .   S
    C272   O473      0.67479      .   S
    C153   O474      0.54466      .   S
    C35    O474      0.54466      .   S
    C153   O475      0.67479      .   S
    C273   O475      0.67479      .   S
    C276   O476      0.67301      .   S
    C180   O476      0.67301      .   S
    C276   O477      0.67486      .   S
    C188   O477      0.67486      .   S
    C277   O478      0.67296      .   S
    C181   O478      0.67296      .   S
    C277   O479      0.67474      .   S
    C189   O479      0.67474      .   S
    C302   O480      0.63505      .   S
    C140   O480      0.63505      .   S
    C303   O481      0.63503      .   S
    C141   O481      0.63503      .   S
    C320   O482      1.04709      .   S
    C1     O482      1.04709  1_655   S
    C321   O483      1.04718      .   S
    C0     O483      1.04718      .   S
    C144   O484      0.67301      .   S
    C272   O484      0.67301      .   S
    C144   O485      0.54424      .   S
    C28    O485      0.54424      .   S
    C145   O486      0.67300      .   S
    C273   O486      0.67300      .   S
    C145   O487      0.54423      .   S
    C29    O487      0.54423      .   S
    C180   O488      0.69678      .   S
    C182   O488      0.69678      .   S
    C181   O489      0.69656      .   S
    C183   O489      0.69656      .   S
    C300   O490      0.63654      .   S
    C140   O490      0.63654      .   S
    C301   O491      0.63655      .   S
    C141   O491      0.63655      .   S
    C26    O492      0.54912      .   S
    C134   O492      0.54912      .   S
    C27    O493      0.54912      .   S
    C135   O493      0.54912      .   S
    C62    O494      0.54457      .   S
    C188   O494      0.54457      .   S
    C63    O495      0.54459      .   S
    C189   O495      0.54459      .   S
    C272   O496      1.10206      .   S
    C0     O496      1.10206      .   S
    C273   O497      1.10207      .   S
    C1     O497      1.10207      .   S
    C188   O498      0.69274      .   S
    C186   O498      0.69274      .   S
    C189   O499      0.69273      .   S
    C187   O499      0.69273      .   S
    C140   O500      0.76891      .   S
    C132   O500      0.76891      .   S
    C141   O501      0.76893      .   S
    C133   O501      0.76893      .   S
    C183   O502      0.54491      .   S
    C59    O502      0.54491      .   S
    C183   O503      0.70196      .   S
    C185   O503      0.70196      .   S
    C182   O504      0.54476      .   S
    C58    O504      0.54476      .   S
    C182   O505      0.70180      .   S
    C184   O505      0.70180      .   S
    C288   O506      0.72332      .   S
    C135   O506      0.72332      .   S
    C288   O507      0.72721      .   S
    C128   O507      0.72721      .   S
    C289   O508      0.72327      .   S
    C134   O508      0.72327  1_455   S
    C289   O509      0.72716      .   S
    C129   O509      0.72716      .   S
    C134   O510      0.77047  1_455   S
    C133   O510      0.77047      .   S
    C134   O511      0.77029      .   S
    C142   O511      0.77029      .   S
    C135   O512      0.77053      .   S
    C132   O512      0.77053      .   S
    C135   O513      0.77028      .   S
    C143   O513      0.77028      .   S
    C186   O514      0.70216      .   S
    C184   O514      0.70216      .   S
    C186   O515      0.54432      .   S
    C60    O515      0.54432      .   S
    C187   O516      0.70214      .   S
    C185   O516      0.70214      .   S
    C187   O517      0.54433      .   S
    C61    O517      0.54433      .   S
    C21    O518      0.54857      .   S
    C129   O518      0.54857      .   S
    C20    O519      0.54857      .   S
    C128   O519      0.54857      .   S
    C0     O520      1.07557      .   S
    C307   O520      1.07557      .   S
    C0     O521      1.04507      .   S
    C292   O521      1.04507      .   S
    C1     O522      1.07552  1_655   S
    C306   O522      1.07552      .   S
    C1     O523      1.04508      .   S
    C293   O523      1.04508      .   S
    C17    O524      0.50687      .   S
    C291   O524      0.50687      .   S
    C16    O525      0.50687      .   S
    C290   O525      0.50687      .   S
    C184   O526      0.73963      .   S
    C194   O526      0.73963  1_545   S
    C185   O527      0.73960      .   S
    C195   O527      0.73960  1_545   S
    C132   O528      0.54740      .   S
    C25    O528      0.54740      .   S
    C132   O529      0.77486      .   S
    C130   O529      0.77486      .   S
    C133   O530      0.54747      .   S
    C24    O530      0.54747  1_455   S
    C133   O531      0.77488      .   S
    C131   O531      0.77488      .   S
    C67    O532      0.54466      .   S
    C193   O532      0.54466      .   S
    C66    O533      0.54471      .   S
    C192   O533      0.54471      .   S
    C128   O534      0.76817      .   S
    C130   O534      0.76817      .   S
    C128   O535      0.76259      .   S
    C136   O535      0.76259      .   S
    C129   O536      0.76819      .   S
    C131   O536      0.76819      .   S
    C129   O537      0.76260      .   S
    C137   O537      0.76260      .   S
    C143   O538      0.64204      .   S
    C305   O538      0.64204      .   S
    C143   O539      0.62732      .   S
    C307   O539      0.62732      .   S
    C142   O540      0.64204      .   S
    C304   O540      0.64204      .   S
    C142   O541      0.62733      .   S
    C306   O541      0.62733      .   S
    C290   O542      0.50118      .   S
    C18    O542      0.50118      .   S
    C291   O543      0.50050      .   S
    C19    O543      0.50050      .   S
    C304   O544      0.99926      .   S
    C10    O544      0.99926      .   S
    C305   O545      0.99927      .   S
    C11    O545      0.99927      .   S
    C193   O546      0.70214      .   S
    C195   O546      0.70214      .   S
    C193   O547      0.69526      .   S
    C191   O547      0.69526      .   S
    C192   O548      0.70215      .   S
    C194   O548      0.70215      .   S
    C192   O549      0.69526      .   S
    C190   O549      0.69526      .   S
    C194   O550      0.70226      .   S
    C196   O550      0.70226      .   S
    C195   O551      0.70230      .   S
    C197   O551      0.70230      .   S
    C297   O552      0.64137      .   S
    C139   O552      0.64137      .   S
    C297   O553      0.97719      .   S
    C11    O553      0.97719      .   S
    C296   O554      0.64137      .   S
    C138   O554      0.64137      .   S
    C296   O555      0.97720      .   S
    C10    O555      0.97720      .   S
    C130   O556      0.76519      .   S
    C138   O556      0.76519      .   S
    C130   O557      0.55095      .   S
    C22    O557      0.55095      .   S
    C131   O558      0.76518      .   S
    C139   O558      0.76518      .   S
    C131   O559      0.55094      .   S
    C23    O559      0.55094      .   S
    C137   O560      0.63359      .   S
    C293   O560      0.63359      .   S
    C137   O561      0.63626      .   S
    C295   O561      0.63626      .   S
    C136   O562      0.63359      .   S
    C292   O562      0.63359      .   S
    C136   O563      0.63626      .   S
    C294   O563      0.63626      .   S
    C138   O564      0.63064      .   S
    C298   O564      0.63064      .   S
    C139   O565      0.63053      .   S
    C299   O565      0.63053      .   S
    C190   O566      0.54486      .   S
    C64    O566      0.54486      .   S
    C190   O567      0.67534      .   S
    C278   O567      0.67534      .   S
    C191   O568      0.54486      .   S
    C65    O568      0.54486      .   S
    C191   O569      0.67529      .   S
    C279   O569      0.67529      .   S
    C196   O570      0.54391      .   S
    C68    O570      0.54391      .   S
    C196   O571      0.69266      .   S
    C198   O571      0.69266      .   S
    C197   O572      0.54387      .   S
    C69    O572      0.54387      .   S
    C197   O573      0.69266      .   S
    C199   O573      0.69266      .   S
    C11    O574      1.04547      .   S
    C287   O574      1.04547      .   S
    C11    O575      0.99319      .   S
    C335   O575      0.99319      .   S
    C10    O576      1.04547      .   S
    C286   O576      1.04547      .   S
    C10    O577      0.99319      .   S
    C334   O577      0.99319      .   S
    C295   O578      0.99321      .   S
    C3     O578      0.99321      .   S
    C294   O579      0.99324      .   S
    C2     O579      0.99324      .   S
    C126   O580      0.54392      .   S
    C270   O580      0.54392      .   S
    C127   O581      0.54408      .   S
    C271   O581      0.54408      .   S
    C279   O582      0.67450      .   S
    C199   O582      0.67450      .   S
    C279   O583      1.04551      .   S
    C3     O583      1.04551      .   S
    C278   O584      0.67449      .   S
    C198   O584      0.67449      .   S
    C278   O585      1.04550      .   S
    C2     O585      1.04550      .   S
    C198   O586      0.54411      .   S
    C70    O586      0.54411      .   S
    C199   O587      0.54412      .   S
    C71    O587      0.54412      .   S
    C270   O588      0.67453      .   S
    C286   O588      0.67453      .   S
    C270   O589      0.69286      .   S
    C268   O589      0.69286      .   S
    C271   O590      0.67449      .   S
    C287   O590      0.67449      .   S
    C271   O591      0.69269      .   S
    C269   O591      0.69269      .   S
    C287   O592      0.67537      .   S
    C263   O592      0.67537      .   S
    C286   O593      0.67531      .   S
    C262   O593      0.67531      .   S
    C338   O594      0.63064      .   S
    C210   O594      0.63064      .   S
    C339   O595      0.63064      .   S
    C211   O595      0.63064      .   S
    C334   O596      0.63623      .   S
    C208   O596      0.63623      .   S
    C335   O597      0.63623      .   S
    C209   O597      0.63623      .   S
    C125   O598      0.54402      .   S
    C269   O598      0.54402      .   S
    C124   O599      0.54391      .   S
    C268   O599      0.54391      .   S
    C79    O600      0.55128      .   S
    C203   O600      0.55128      .   S
    C78    O601      0.55093      .   S
    C202   O601      0.55093      .   S
    C3     O602      0.97718      .   S
    C337   O602      0.97718      .   S
    C3     O603      0.99926      .   S
    C345   O603      0.99926      .   S
    C2     O604      0.97717      .   S
    C336   O604      0.97717      .   S
    C2     O605      0.99916      .   S
    C344   O605      0.99916      .   S
    C269   O606      0.70226      .   S
    C267   O606      0.70226      .   S
    C268   O607      0.70226      .   S
    C266   O607      0.70226      .   S
    C121   O608      0.54485      .   S
    C263   O608      0.54485      .   S
    C120   O609      0.54486      .   S
    C262   O609      0.54486      .   S
    C262   O610      0.69525      .   S
    C264   O610      0.69525      .   S
    C263   O611      0.69524      .   S
    C265   O611      0.69524      .   S
    C75    O612      0.50116      .   S
    C331   O612      0.50116      .   S
    C74    O613      0.50115      .   S
    C330   O613      0.50115      .   S
    C210   O614      0.76518      .   S
    C202   O614      0.76518      .   S
    C210   O615      0.64137      .   S
    C336   O615      0.64137      .   S
    C211   O616      0.76517      .   S
    C203   O616      0.76517      .   S
    C211   O617      0.64137      .   S
    C337   O617      0.64137      .   S
    C332   O618      0.63357      .   S
    C208   O618      0.63357      .   S
    C332   O619      1.04457      .   S
    C8     O619      1.04457      .   S
    C333   O620      0.63357      .   S
    C209   O620      0.63357      .   S
    C333   O621      1.04446      .   S
    C9     O621      1.04446      .   S
    C209   O622      0.76268      .   S
    C201   O622      0.76268      .   S
    C208   O623      0.76267      .   S
    C200   O623      0.76267      .   S
    C203   O624      0.76818      .   S
    C201   O624      0.76818      .   S
    C203   O625      0.77487      .   S
    C205   O625      0.77487      .   S
    C202   O626      0.76819      .   S
    C200   O626      0.76819      .   S
    C202   O627      0.77487      .   S
    C204   O627      0.77487      .   S
    C346   O628      0.62736      .   S
    C214   O628      0.62736      .   S
    C346   O629      1.07530      .   S
    C9     O629      1.07530      .   S
    C347   O630      0.62732      .   S
    C215   O630      0.62732      .   S
    C347   O631      1.07528      .   S
    C8     O631      1.07528  1_455   S
    C266   O632      0.70214      .   S
    C264   O632      0.70214      .   S
    C266   O633      0.73955  1_565   S
    C256   O633      0.73955      .   S
    C267   O634      0.70214      .   S
    C265   O634      0.70214      .   S
    C267   O635      0.73950  1_565   S
    C257   O635      0.73950      .   S
    C264   O636      0.54468      .   S
    C122   O636      0.54468      .   S
    C265   O637      0.54464      .   S
    C123   O637      0.54464      .   S
    C344   O638      0.64204      .   S
    C214   O638      0.64204      .   S
    C345   O639      0.64203      .   S
    C215   O639      0.64203      .   S
    C330   O640      0.50689      .   S
    C72    O640      0.50689      .   S
    C331   O641      0.50690      .   S
    C73    O641      0.50690      .   S
    C81    O642      0.54747  1_655   S
    C204   O642      0.54747      .   S
    C80    O643      0.54752      .   S
    C205   O643      0.54752      .   S
    C214   O644      0.77025      .   S
    C206   O644      0.77025      .   S
    C215   O645      0.77025      .   S
    C207   O645      0.77025      .   S
    C201   O646      0.54853      .   S
    C77    O646      0.54853      .   S
    C201   O647      0.72711      .   S
    C329   O647      0.72711      .   S
    C200   O648      0.54853      .   S
    C76    O648      0.54853      .   S
    C200   O649      0.72715      .   S
    C328   O649      0.72715      .   S
    C117   O650      0.54433      .   S
    C259   O650      0.54433      .   S
    C116   O651      0.54431      .   S
    C258   O651      0.54431      .   S
    C205   O652      0.77054      .   S
    C206   O652      0.77054      .   S
    C205   O653      0.76895      .   S
    C213   O653      0.76895      .   S
    C204   O654      0.77047      .   S
    C207   O654      0.77047  1_655   S
    C204   O655      0.76896      .   S
    C212   O655      0.76896      .   S
    C256   O656      0.70217      .   S
    C258   O656      0.70217      .   S
    C256   O657      0.70185      .   S
    C254   O657      0.70185      .   S
    C257   O658      0.70220      .   S
    C259   O658      0.70220      .   S
    C257   O659      0.70186      .   S
    C255   O659      0.70186      .   S
    C9     O660      1.10244      .   S
    C281   O660      1.10244      .   S
    C9     O661      1.04771      .   S
    C360   O661      1.04771      .   S
    C8     O662      1.10238      .   S
    C280   O662      1.10238      .   S
    C8     O663      1.04761  1_455   S
    C361   O663      1.04761      .   S
    C258   O664      0.69275      .   S
    C260   O664      0.69275      .   S
    C259   O665      0.69272      .   S
    C261   O665      0.69272      .   S
    C115   O666      0.54493      .   S
    C255   O666      0.54493      .   S
    C114   O667      0.54489      .   S
    C254   O667      0.54489      .   S
    C207   O668      0.72325  1_655   S
    C328   O668      0.72325      .   S
    C207   O669      0.54911      .   S
    C83    O669      0.54911      .   S
    C206   O670      0.72331      .   S
    C329   O670      0.72331      .   S
    C206   O671      0.54911      .   S
    C82    O671      0.54911      .   S
    C254   O672      0.69640      .   S
    C252   O672      0.69640      .   S
    C255   O673      0.69672      .   S
    C253   O673      0.69672      .   S
    C84    O674      0.54433      .   S
    C216   O674      0.54433      .   S
    C85    O675      0.54426      .   S
    C217   O675      0.54426      .   S
    C213   O676      0.63655      .   S
    C341   O676      0.63655      .   S
    C213   O677      0.63505      .   S
    C343   O677      0.63505      .   S
    C212   O678      0.63654      .   S
    C340   O678      0.63654      .   S
    C212   O679      0.63505      .   S
    C342   O679      0.63505      .   S
    C260   O680      0.54457      .   S
    C118   O680      0.54457      .   S
    C260   O681      0.67475      .   S
    C284   O681      0.67475      .   S
    C261   O682      0.54458      .   S
    C119   O682      0.54458      .   S
    C261   O683      0.67474      .   S
    C285   O683      0.67474      .   S
    C280   O684      0.67300      .   S
    C216   O684      0.67300      .   S
    C280   O685      0.67478      .   S
    C224   O685      0.67478      .   S
    C281   O686      0.67300      .   S
    C217   O686      0.67300      .   S
    C281   O687      0.67478      .   S
    C225   O687      0.67478      .   S
    C363   O688      0.63507      .   S
    C249   O688      0.63507      .   S
    C362   O689      0.63504      .   S
    C248   O689      0.63504      .   S
    C340   O690      1.04799      .   S
    C12    O690      1.04799      .   S
    C341   O691      1.04797      .   S
    C13    O691      1.04797      .   S
    C252   O692      0.67309      .   S
    C284   O692      0.67309      .   S
    C252   O693      0.54444      .   S
    C112   O693      0.54444      .   S
    C253   O694      0.67297      .   S
    C285   O694      0.67297      .   S
    C253   O695      0.54426      .   S
    C113   O695      0.54426      .   S
    C216   O696      0.69672      .   S
    C218   O696      0.69672      .   S
    C217   O697      0.69673      .   S
    C219   O697      0.69673      .   S
    C360   O698      0.63667      .   S
    C248   O698      0.63667      .   S
    C361   O699      0.63665      .   S
    C249   O699      0.63665      .   S
    C110   O700      0.54909      .   S
    C242   O700      0.54909      .   S
    C111   O701      0.54909      .   S
    C243   O701      0.54909      .   S
    C91    O702      0.54467      .   S
    C225   O702      0.54467      .   S
    C90    O703      0.54467      .   S
    C224   O703      0.54467      .   S
    C284   O704      1.10044      .   S
    C12    O704      1.10044      .   S
    C285   O705      1.10047      .   S
    C13    O705      1.10047      .   S
    C224   O706      0.69282      .   S
    C222   O706      0.69282      .   S
    C225   O707      0.69291      .   S
    C223   O707      0.69291      .   S
    C248   O708      0.76953      .   S
    C240   O708      0.76953      .   S
    C249   O709      0.76946      .   S
    C241   O709      0.76946      .   S
    C218   O710      0.54488      .   S
    C86    O710      0.54488      .   S
    C218   O711      0.70182      .   S
    C220   O711      0.70182      .   S
    C219   O712      0.54487      .   S
    C87    O712      0.54487      .   S
    C219   O713      0.70182      .   S
    C221   O713      0.70182      .   S
    C348   O714      0.72333      .   S
    C242   O714      0.72333      .   S
    C348   O715      0.72646      .   S
    C236   O715      0.72646      .   S
    C349   O716      0.72335      .   S
    C243   O716      0.72335      .   S
    C349   O717      0.72687      .   S
    C237   O717      0.72687      .   S
    C242   O718      0.77063      .   S
    C240   O718      0.77063      .   S
    C242   O719      0.77050      .   S
    C250   O719      0.77050      .   S
    C243   O720      0.77062      .   S
    C241   O720      0.77062      .   S
    C243   O721      0.77051      .   S
    C251   O721      0.77051      .   S
    C222   O722      0.70227      .   S
    C220   O722      0.70227      .   S
    C222   O723      0.54434      .   S
    C88    O723      0.54434      .   S
    C223   O724      0.70225      .   S
    C221   O724      0.70225      .   S
    C223   O725      0.54434      .   S
    C89    O725      0.54434      .   S
    C104   O726      0.54817      .   S
    C236   O726      0.54817      .   S
    C105   O727      0.54854      .   S
    C237   O727      0.54854      .   S
    C220   O728      0.73987      .   S
    C230   O728      0.73987  1_545   S
    C221   O729      0.73983      .   S
    C231   O729      0.73983  1_545   S
    C100   O730      0.50700      .   S
    C350   O730      0.50700      .   S
    C101   O731      0.50699      .   S
    C351   O731      0.50699      .   S
    C12    O732      1.07642      .   S
    C366   O732      1.07642      .   S
    C12    O733      1.04498      .   S
    C352   O733      1.04498      .   S
    C13    O734      1.07643      .   S
    C367   O734      1.07643      .   S
    C13    O735      1.04497      .   S
    C353   O735      1.04497      .   S
    C241   O736      0.54757      .   S
    C109   O736      0.54757      .   S
    C241   O737      0.77519      .   S
    C239   O737      0.77519      .   S
    C240   O738      0.54757      .   S
    C108   O738      0.54757      .   S
    C240   O739      0.77519      .   S
    C238   O739      0.77519      .   S
    C95    O740      0.54571      .   S
    C229   O740      0.54571      .   S
    C94    O741      0.54465      .   S
    C228   O741      0.54465      .   S
    C236   O742      0.76829      .   S
    C238   O742      0.76829      .   S
    C236   O743      0.76346      .   S
    C244   O743      0.76346      .   S
    C237   O744      0.76803      .   S
    C239   O744      0.76803      .   S
    C237   O745      0.76288      .   S
    C245   O745      0.76288      .   S
    C250   O746      0.64200      .   S
    C364   O746      0.64200      .   S
    C250   O747      0.62737      .   S
    C366   O747      0.62737      .   S
    C251   O748      0.64200      .   S
    C365   O748      0.64200      .   S
    C251   O749      0.62738      .   S
    C367   O749      0.62738      .   S
    C351   O750      0.50116      .   S
    C103   O750      0.50116      .   S
    C350   O751      0.50116      .   S
    C102   O751      0.50116      .   S
    C365   O752      1.00069      .   S
    C7     O752      1.00069      .   S
    C364   O753      1.00068      .   S
    C6     O753      1.00068      .   S
    C228   O754      0.70223      .   S
    C230   O754      0.70223      .   S
    C228   O755      0.69536      .   S
    C226   O755      0.69536      .   S
    C229   O756      0.70223      .   S
    C231   O756      0.70223      .   S
    C229   O757      0.69532      .   S
    C227   O757      0.69532      .   S
    C230   O758      0.70226      .   S
    C232   O758      0.70226      .   S
    C231   O759      0.70223      .   S
    C233   O759      0.70223      .   S
    C356   O760      0.64123  1_455   S
    C247   O760      0.64123      .   S
    C356   O761      0.97591      .   S
    C6     O761      0.97591      .   S
    C357   O762      0.64130      .   S
    C246   O762      0.64130      .   S
    C357   O763      0.97586      .   S
    C7     O763      0.97586      .   S
    C238   O764      0.76460      .   S
    C246   O764      0.76460      .   S
    C238   O765      0.55094      .   S
    C106   O765      0.55094      .   S
    C239   O766      0.76461      .   S
    C247   O766      0.76461      .   S
    C239   O767      0.55101      .   S
    C107   O767      0.55101      .   S
    C244   O768      0.63364      .   S
    C352   O768      0.63364      .   S
    C244   O769      0.63626      .   S
    C354   O769      0.63626      .   S
    C245   O770      0.63364      .   S
    C353   O770      0.63364      .   S
    C245   O771      0.63625      .   S
    C355   O771      0.63625      .   S
    C246   O772      0.63056      .   S
    C358   O772      0.63056      .   S
    C247   O773      0.63038      .   S
    C359   O773      0.63038      .   S
    C92    O774      0.54484      .   S
    C226   O774      0.54484      .   S
    C93    O775      0.54479      .   S
    C227   O775      0.54479      .   S
    C227   O776      0.67536      .   S
    C283   O776      0.67536      .   S
    C226   O777      0.67534      .   S
    C282   O777      0.67534      .   S
    C233   O778      0.54392      .   S
    C97    O778      0.54392      .   S
    C233   O779      0.69272      .   S
    C235   O779      0.69272      .   S
    C232   O780      0.54390      .   S
    C96    O780      0.54390      .   S
    C232   O781      0.69271      .   S
    C234   O781      0.69271      .   S
    C282   O782      0.67452      .   S
    C234   O782      0.67452      .   S
    C283   O783      0.67451      .   S
    C235   O783      0.67451      .   S
    C288   O784      1.14749      .   S
    C0     O784      1.14749      .   S
    C289   O785      1.14748      .   S
    C1     O785      1.14748      .   S
    C290   O786      1.04419      .   S
    C1     O786      1.04419  1_655   S
    C291   O787      1.04427      .   S
    C0     O787      1.04427      .   S
    C308   O788      1.14364      .   S
    C4     O788      1.14364      .   S
    C309   O789      1.14363      .   S
    C5     O789      1.14363      .   S
    C310   O790      1.04518      .   S
    C4     O790      1.04518      .   S
    C311   O791      1.04516      .   S
    C5     O791      1.04516      .   S
    C328   O792      1.14778      .   S
    C8     O792      1.14778      .   S
    C329   O793      1.14781      .   S
    C9     O793      1.14781      .   S
    C330   O794      1.04392      .   S
    C9     O794      1.04392      .   S
    C331   O795      1.04391      .   S
    C8     O795      1.04391  1_455   S
    C348   O796      1.14368      .   S
    C12    O796      1.14368      .   S
    C349   O797      1.14366      .   S
    C13    O797      1.14366      .   S
    C350   O798      1.04521      .   S
    C12    O798      1.04521      .   S
    C351   O799      1.04522      .   S
    C13    O799      1.04522      .   S
