# CIF file generated by openbabel 2.4.90, see http://openbabel.sf.net
data_I
_chemical_name_common ''
_cell_length_a 20.75
_cell_length_b 25.128
_cell_length_c 20.218
_cell_angle_alpha 90.024
_cell_angle_beta 89.988
_cell_angle_gamma 90.036
_space_group_name_H-M_alt 'P 1'
_space_group_name_Hall 'P 1'
loop_
    _symmetry_equiv_pos_as_xyz
    x,y,z
loop_
    _atom_site_label
    _atom_site_type_symbol
    _atom_site_fract_x
    _atom_site_fract_y
    _atom_site_fract_z
    _atom_site_occupancy
    H0      H    0.47530   0.23484   0.82313   1.000
    H1      H    0.47530   0.73487   0.82310   1.000
    H2      H    0.97530   0.23484   0.82313   1.000
    H3      H    0.97530   0.73487   0.82310   1.000
    H4      H    0.27995   0.29104   0.81866   1.000
    H5      H    0.28001   0.79119   0.81860   1.000
    H6      H    0.77996   0.29105   0.81860   1.000
    H7      H    0.78001   0.79119   0.81860   1.000
    H8      H    0.46753   0.21030   0.70296   1.000
    H9      H    0.46753   0.71032   0.70294   1.000
    H10     H    0.96753   0.21030   0.70296   1.000
    H11     H    0.96753   0.71032   0.70294   1.000
    H12     H    0.27232   0.26683   0.69859   1.000
    H13     H    0.27238   0.76699   0.69853   1.000
    H14     H    0.77232   0.26684   0.69858   1.000
    H15     H    0.77238   0.76699   0.69853   1.000
    H16     H    0.35960   0.48548   0.00000   1.000
    H17     H    0.35959   0.98549   0.00000   1.000
    H18     H    0.85960   0.48548   0.00000   1.000
    H19     H    0.85959   0.98549   0.00000   1.000
    H20     H    0.31088   0.48098   0.88732   1.000
    H21     H    0.31088   0.98097   0.88730   1.000
    H22     H    0.81089   0.48098   0.88732   1.000
    H23     H    0.81088   0.98097   0.88730   1.000
    H24     H    0.39693   0.47985   0.88330   1.000
    H25     H    0.39692   0.97983   0.88330   1.000
    H26     H    0.89693   0.47985   0.88336   1.000
    H27     H    0.89692   0.97983   0.88332   1.000
    H28     H    0.35164   0.41983   0.87230   1.000
    H29     H    0.35163   0.91981   0.87229   1.000
    H30     H    0.85164   0.41983   0.87230   1.000
    H31     H    0.85163   0.91981   0.87229   1.000
    H32     H    0.27460   0.26512   0.32314   1.000
    H33     H    0.27462   0.76516   0.32315   1.000
    H34     H    0.77460   0.26512   0.32314   1.000
    H35     H    0.77462   0.76516   0.32315   1.000
    H36     H    0.47009   0.20925   0.31867   1.000
    H37     H    0.47007   0.70922   0.31865   1.000
    H38     H    0.97009   0.20925   0.31867   1.000
    H39     H    0.97007   0.70922   0.31865   1.000
    H40     H    0.28239   0.28966   0.20299   1.000
    H41     H    0.28240   0.78971   0.20300   1.000
    H42     H    0.78239   0.28966   0.20299   1.000
    H43     H    0.78240   0.78971   0.20300   1.000
    H44     H    0.47774   0.23346   0.19862   1.000
    H45     H    0.47772   0.73342   0.19860   1.000
    H46     H    0.97774   0.23346   0.19862   1.000
    H47     H    0.97772   0.73342   0.19860   1.000
    H48     H    0.39077   0.01480   0.50002   1.000
    H49     H    0.39076   0.51481   0.50003   1.000
    H50     H    0.89077   0.01480   0.50002   1.000
    H51     H    0.89076   0.51481   0.50003   1.000
    H52     H    0.43856   0.01901   0.38616   1.000
    H53     H    0.43855   0.51900   0.38617   1.000
    H54     H    0.93856   0.01901   0.38616   1.000
    H55     H    0.93855   0.51900   0.38617   1.000
    H56     H    0.35246   0.01980   0.38290   1.000
    H57     H    0.35245   0.51979   0.38292   1.000
    H58     H    0.85246   0.01980   0.38290   1.000
    H59     H    0.85245   0.51979   0.38292   1.000
    H60     H    0.39735   0.07994   0.37112   1.000
    H61     H    0.39733   0.57993   0.37112   1.000
    H62     H    0.89735   0.07994   0.37112   1.000
    H63     H    0.89733   0.57993   0.37112   1.000
    H64     H    0.02439   0.48480   0.67707   1.000
    H65     H    0.02428   0.98509   0.67718   1.000
    H66     H    0.52439   0.48480   0.67707   1.000
    H67     H    0.52428   0.98509   0.67718   1.000
    C68     C    0.85677   0.94719   0.97400   1.000
    C69     C    0.35407   0.45773   0.89936   1.000
    C70     C    0.35405   0.95771   0.89930   1.000
    C71     C    0.85406   0.45773   0.89930   1.000
    H72     H    0.22001   0.04059   0.68108   1.000
    H73     H    0.21993   0.54075   0.68110   1.000
    H74     H    0.72001   0.04059   0.68108   1.000
    H75     H    0.71993   0.54074   0.68113   1.000
    H76     H    0.03240   0.46015   0.79710   1.000
    H77     H    0.03229   0.96045   0.79728   1.000
    H78     H    0.53240   0.46015   0.79710   1.000
    H79     H    0.53229   0.96045   0.79728   1.000
    H80     H    0.22790   0.01628   0.80100   1.000
    H81     H    0.22783   0.51640   0.80112   1.000
    H82     H    0.72790   0.01628   0.80100   1.000
    H83     H    0.72783   0.51640   0.80112   1.000
    H84     H    0.14093   0.23521   0.50001   1.000
    H85     H    0.14093   0.73521   0.49993   1.000
    H86     H    0.64093   0.23521   0.50001   1.000
    H87     H    0.64093   0.73521   0.49993   1.000
    H88     H    0.18883   0.23086   0.61383   1.000
    H89     H    0.18882   0.73095   0.61376   1.000
    H90     H    0.68883   0.23086   0.61383   1.000
    H91     H    0.68882   0.73095   0.61376   1.000
    H92     H    0.10273   0.23027   0.61715   1.000
    H93     H    0.10272   0.73036   0.61707   1.000
    H94     H    0.60273   0.23027   0.61715   1.000
    H95     H    0.60272   0.73036   0.61707   1.000
    H96     H    0.14734   0.17003   0.62887   1.000
    H97     H    0.14732   0.67013   0.62887   1.000
    H98     H    0.64734   0.17003   0.62887   1.000
    H99     H    0.64732   0.67013   0.62887   1.000
    C100    C    0.06871   0.49144   0.70468   1.000
    C101    C    0.06864   0.99164   0.70476   1.000
    C102    C    0.56871   0.49144   0.70468   1.000
    C103    C    0.56864   0.99164   0.70476   1.000
    C104    C    0.17923   0.02303   0.70703   1.000
    H105    H    0.22540   0.01515   0.17695   1.000
    H106    H    0.22535   0.51525   0.17691   1.000
    H107    H    0.72540   0.01515   0.17695   1.000
    H108    H    0.72535   0.51525   0.17691   1.000
    H109    H    0.02986   0.45919   0.18126   1.000
    H110    H    0.02983   0.95927   0.18124   1.000
    H111    H    0.52986   0.45919   0.18126   1.000
    H112    H    0.52983   0.95927   0.18124   1.000
    H113    H    0.21757   0.03968   0.29713   1.000
    H114    H    0.21753   0.53977   0.29709   1.000
    H115    H    0.71757   0.03968   0.29713   1.000
    H116    H    0.71753   0.53978   0.29709   1.000
    H117    H    0.02217   0.48338   0.30135   1.000
    H118    H    0.02213   0.98346   0.30132   1.000
    H119    H    0.52217   0.48338   0.30135   1.000
    H120    H    0.52213   0.98346   0.30132   1.000
    H121    H    0.10914   0.26477   0.99985   1.000
    H122    H    0.10913   0.76477   0.00000   1.000
    H123    H    0.60914   0.26477   0.99985   1.000
    H124    H    0.60913   0.76477   0.00000   1.000
    H125    H    0.06105   0.26911   0.11360   1.000
    H126    H    0.06104   0.76928   0.11374   1.000
    H127    H    0.56105   0.26911   0.11360   1.000
    H128    H    0.56104   0.76928   0.11374   1.000
    H129    H    0.14714   0.26976   0.11705   1.000
    H130    H    0.14713   0.76993   0.11720   1.000
    H131    H    0.64714   0.26976   0.11705   1.000
    H132    H    0.64713   0.76993   0.11720   1.000
    H133    H    0.10246   0.32998   0.12874   1.000
    H134    H    0.10245   0.83017   0.12875   1.000
    H135    H    0.60245   0.32998   0.12874   1.000
    H136    H    0.60245   0.83017   0.12875   1.000
    C137    C    0.38271   0.27993   0.89918   1.000
    C138    C    0.38272   0.77997   0.89910   1.000
    C139    C    0.88271   0.27994   0.89918   1.000
    C140    C    0.88272   0.77997   0.89910   1.000
    C141    C    0.37800   0.26422   0.82790   1.000
    C142    C    0.37802   0.76430   0.82787   1.000
    C143    C    0.87800   0.26423   0.82790   1.000
    C144    C    0.87802   0.76430   0.82787   1.000
    C145    C    0.43108   0.24155   0.79540   1.000
    C146    C    0.43109   0.74161   0.79538   1.000
    C147    C    0.93108   0.24156   0.79540   1.000
    C148    C    0.93109   0.74161   0.79538   1.000
    C149    C    0.32071   0.27335   0.79283   1.000
    C150    C    0.32075   0.77348   0.79278   1.000
    C151    C    0.82071   0.27336   0.79283   1.000
    C152    C    0.82075   0.77348   0.79278   1.000
    C153    C    0.42685   0.22808   0.72882   1.000
    C154    C    0.42686   0.72814   0.72880   1.000
    C155    C    0.92685   0.22808   0.72882   1.000
    C156    C    0.92686   0.72814   0.72880   1.000
    C157    C    0.31654   0.25995   0.72622   1.000
    C158    C    0.31659   0.76008   0.72617   1.000
    C159    C    0.81655   0.25996   0.72622   1.000
    C160    C    0.81659   0.76008   0.72617   1.000
    C161    C    0.36954   0.23715   0.69375   1.000
    C162    C    0.36957   0.73724   0.69370   1.000
    C163    C    0.86954   0.23716   0.69375   1.000
    C164    C    0.86957   0.73724   0.69370   1.000
    C165    C    0.36485   0.22110   0.62258   1.000
    C166    C    0.36486   0.72114   0.62256   1.000
    C167    C    0.86485   0.22110   0.62258   1.000
    C168    C    0.86486   0.72114   0.62256   1.000
    C169    C    0.41906   0.41736   0.99010   1.000
    C170    C    0.41905   0.91737   0.99000   1.000
    C171    C    0.91906   0.41736   0.99010   1.000
    C172    C    0.91905   0.91737   0.99009   1.000
    C173    C    0.35678   0.44718   0.97401   1.000
    C174    C    0.35677   0.94719   0.97400   1.000
    C175    C    0.85678   0.44718   0.97401   1.000
    O176    O    0.06285   0.52127   0.57221   1.000
    O177    O    0.56284   0.02129   0.57223   1.000
    O178    O    0.56285   0.52127   0.57221   1.000
    O179    O    0.18914   0.48051   0.90637   1.000
    O180    O    0.18910   0.98066   0.90640   1.000
    O181    O    0.68915   0.48051   0.90637   1.000
    O182    O    0.68910   0.98066   0.90640   1.000
    O183    O    0.08625   0.44879   0.90290   1.000
    C184    C    0.85405   0.95771   0.89934   1.000
    C185    C    0.36723   0.22014   0.39916   1.000
    C186    C    0.36723   0.72015   0.39916   1.000
    C187    C    0.86723   0.22014   0.39916   1.000
    C188    C    0.86723   0.72015   0.39916   1.000
    C189    C    0.37196   0.23589   0.32791   1.000
    C190    C    0.37196   0.73589   0.32791   1.000
    C191    C    0.87196   0.23589   0.32791   1.000
    C192    C    0.87196   0.73589   0.32791   1.000
    C193    C    0.31886   0.25847   0.29541   1.000
    C194    C    0.31887   0.75850   0.29542   1.000
    C195    C    0.81886   0.25847   0.29541   1.000
    C196    C    0.81887   0.75850   0.29542   1.000
    C197    C    0.42930   0.22687   0.29284   1.000
    C198    C    0.42929   0.72685   0.29283   1.000
    C199    C    0.92930   0.22687   0.29284   1.000
    C200    C    0.92929   0.72685   0.29283   1.000
    C201    C    0.32309   0.27195   0.22885   1.000
    C202    C    0.32310   0.77197   0.22885   1.000
    C203    C    0.82309   0.27195   0.22885   1.000
    C204    C    0.82310   0.77197   0.22885   1.000
    C205    C    0.43347   0.24026   0.22625   1.000
    C206    C    0.43346   0.74024   0.22624   1.000
    C207    C    0.93347   0.24026   0.22625   1.000
    C208    C    0.93346   0.74024   0.22624   1.000
    C209    C    0.38044   0.26295   0.19377   1.000
    C210    C    0.38043   0.76295   0.19377   1.000
    C211    C    0.88044   0.26295   0.19377   1.000
    C212    C    0.88044   0.76295   0.19377   1.000
    C213    C    0.38513   0.27895   0.12260   1.000
    C214    C    0.38513   0.77895   0.12259   1.000
    C215    C    0.88513   0.27895   0.12260   1.000
    C216    C    0.88513   0.77895   0.12259   1.000
    C217    C    0.33096   0.08270   0.48971   1.000
    C218    C    0.33096   0.58271   0.48972   1.000
    C219    C    0.83096   0.08270   0.48971   1.000
    C220    C    0.83096   0.58271   0.48972   1.000
    C221    C    0.39320   0.05300   0.47301   1.000
    C222    C    0.39319   0.55301   0.47300   1.000
    C223    C    0.89320   0.05300   0.47301   1.000
    C224    C    0.89319   0.55301   0.47300   1.000
    C225    C    0.39533   0.04215   0.39841   1.000
    C226    C    0.39532   0.54214   0.39841   1.000
    C227    C    0.89533   0.04215   0.39840   1.000
    C228    C    0.89532   0.54214   0.39841   1.000
    C229    C    0.11701   0.02989   0.60088   1.000
    C230    C    0.11702   0.52987   0.60086   1.000
    C231    C    0.61701   0.02989   0.60088   1.000
    C232    C    0.61702   0.52987   0.60086   1.000
    C233    C    0.12177   0.01413   0.67212   1.000
    C234    C    0.12178   0.51407   0.67209   1.000
    C235    C    0.62177   0.01413   0.67212   1.000
    C236    C    0.62178   0.51407   0.67209   1.000
    C237    C    0.17919   0.52308   0.70704   1.000
    C238    C    0.67923   0.02303   0.70703   1.000
    C239    C    0.67919   0.52308   0.70704   1.000
    C240    C    0.07307   0.47789   0.77121   1.000
    C241    C    0.07300   0.97811   0.77130   1.000
    C242    C    0.57307   0.47789   0.77121   1.000
    C243    C    0.57300   0.97811   0.77130   1.000
    C244    C    0.18353   0.00958   0.77359   1.000
    C245    C    0.18349   0.50961   0.77360   1.000
    C246    C    0.68353   0.00958   0.77359   1.000
    C247    C    0.68350   0.50961   0.77360   1.000
    C248    C    0.13050   0.48686   0.80610   1.000
    C249    C    0.13048   0.98696   0.80621   1.000
    C250    C    0.63050   0.48686   0.80610   1.000
    C251    C    0.63048   0.98696   0.80621   1.000
    C252    C    0.13525   0.47081   0.87731   1.000
    C253    C    0.13523   0.97090   0.87735   1.000
    C254    C    0.63525   0.47081   0.87731   1.000
    C255    C    0.63523   0.97090   0.87735   1.000
    C256    C    0.08101   0.16731   0.51031   1.000
    C257    C    0.08101   0.66732   0.51030   1.000
    C258    C    0.58101   0.16731   0.51031   1.000
    C259    C    0.58101   0.66732   0.51030   1.000
    C260    C    0.14330   0.19700   0.52700   1.000
    C261    C    0.14329   0.69702   0.52696   1.000
    C262    C    0.64330   0.19700   0.52700   1.000
    C263    C    0.64329   0.69702   0.52696   1.000
    C264    C    0.14549   0.20783   0.60160   1.000
    C265    C    0.14548   0.70791   0.60150   1.000
    C266    C    0.64549   0.20783   0.60160   1.000
    C267    C    0.64548   0.70790   0.60150   1.000
    C268    C    0.13270   0.47019   0.10083   1.000
    C269    C    0.13271   0.97019   0.10083   1.000
    C270    C    0.63271   0.47019   0.10083   1.000
    C271    C    0.63271   0.97019   0.10083   1.000
    C272    C    0.12798   0.48593   0.17209   1.000
    C273    C    0.12798   0.98593   0.17210   1.000
    C274    C    0.62798   0.48593   0.17209   1.000
    C275    C    0.62798   0.98593   0.17210   1.000
    C276    C    0.18111   0.00851   0.20464   1.000
    C277    C    0.18109   0.50857   0.20462   1.000
    C278    C    0.68111   0.00851   0.20464   1.000
    C279    C    0.68109   0.50857   0.20462   1.000
    C280    C    0.07064   0.47684   0.20713   1.000
    C281    C    0.07061   0.97689   0.20712   1.000
    C282    C    0.57064   0.47684   0.20713   1.000
    C283    C    0.57061   0.97689   0.20712   1.000
    C284    C    0.17686   0.02196   0.27122   1.000
    C285    C    0.17684   0.52202   0.27120   1.000
    C286    C    0.67686   0.02196   0.27122   1.000
    C287    C    0.67684   0.52202   0.27120   1.000
    C288    C    0.06644   0.49022   0.27374   1.000
    C289    C    0.06642   0.99026   0.27373   1.000
    C290    C    0.56644   0.49022   0.27374   1.000
    C291    C    0.56642   0.99026   0.27373   1.000
    C292    C    0.11948   0.01295   0.30625   1.000
    C293    C    0.11948   0.51296   0.30624   1.000
    C294    C    0.61948   0.01295   0.30625   1.000
    C295    C    0.61948   0.51296   0.30624   1.000
    C296    C    0.11480   0.02895   0.37743   1.000
    C297    C    0.11479   0.52895   0.37743   1.000
    C298    C    0.61480   0.02895   0.37743   1.000
    C299    C    0.61479   0.52896   0.37743   1.000
    C300    C    0.16901   0.33269   0.01026   1.000
    C301    C    0.16900   0.83271   0.01020   1.000
    C302    C    0.66901   0.33269   0.01026   1.000
    C303    C    0.66900   0.83271   0.01020   1.000
    C304    C    0.10671   0.30298   0.02686   1.000
    C305    C    0.10670   0.80302   0.02693   1.000
    C306    C    0.60671   0.30298   0.02686   1.000
    C307    C    0.60670   0.80302   0.02693   1.000
    C308    C    0.10439   0.29217   0.10145   1.000
    C309    C    0.10438   0.79232   0.10155   1.000
    C310    C    0.60439   0.29217   0.10145   1.000
    C311    C    0.60438   0.79232   0.10155   1.000
    O312    O    0.33315   0.30112   0.92515   1.000
    O313    O    0.33315   0.80113   0.92514   1.000
    O314    O    0.83315   0.30112   0.92515   1.000
    O315    O    0.83315   0.80113   0.92514   1.000
    O316    O    0.43677   0.27116   0.92790   1.000
    O317    O    0.43677   0.77118   0.92789   1.000
    O318    O    0.93677   0.27116   0.92790   1.000
    O319    O    0.93677   0.77118   0.92789   1.000
    O320    O    0.31109   0.23103   0.59340   1.000
    O321    O    0.31110   0.73106   0.59338   1.000
    O322    O    0.81110   0.23103   0.59300   1.000
    O323    O    0.81110   0.73106   0.59338   1.000
    O324    O    0.41373   0.19884   0.59708   1.000
    O325    O    0.41373   0.69886   0.59707   1.000
    O326    O    0.91373   0.19884   0.59700   1.000
    O327    O    0.91373   0.69886   0.59707   1.000
    O328    O    0.41204   0.37045   0.01423   1.000
    O329    O    0.41203   0.87046   0.01423   1.000
    O330    O    0.91204   0.37045   0.01423   1.000
    O331    O    0.91203   0.87046   0.01423   1.000
    O332    O    0.47201   0.43961   0.97792   1.000
    O333    O    0.47200   0.93961   0.97791   1.000
    O334    O    0.97201   0.43961   0.97792   1.000
    O335    O    0.97200   0.93961   0.97791   1.000
    O336    O    0.30231   0.41777   0.99679   1.000
    O337    O    0.30230   0.91778   0.99678   1.000
    O338    O    0.80231   0.41777   0.99679   1.000
    O339    O    0.80230   0.91778   0.99678   1.000
    O340    O    0.41681   0.19902   0.42511   1.000
    O341    O    0.41680   0.69902   0.42511   1.000
    O342    O    0.91681   0.19902   0.42511   1.000
    O343    O    0.91680   0.69902   0.42511   1.000
    O344    O    0.31313   0.22883   0.42788   1.000
    O345    O    0.31312   0.72884   0.42788   1.000
    O346    O    0.81313   0.22883   0.42788   1.000
    O347    O    0.81312   0.72884   0.42788   1.000
    O348    O    0.43890   0.26902   0.09340   1.000
    O349    O    0.43890   0.76902   0.09340   1.000
    O350    O    0.93890   0.26902   0.09340   1.000
    O351    O    0.93890   0.76902   0.09340   1.000
    O352    O    0.33624   0.30115   0.09709   1.000
    O353    O    0.33624   0.80115   0.09709   1.000
    O354    O    0.83624   0.30115   0.09709   1.000
    O355    O    0.83624   0.80115   0.09709   1.000
    O356    O    0.33802   0.12953   0.51416   1.000
    O357    O    0.33802   0.62954   0.51416   1.000
    O358    O    0.83802   0.12953   0.51416   1.000
    O359    O    0.83802   0.62954   0.51416   1.000
    O360    O    0.27798   0.06040   0.47782   1.000
    O361    O    0.27798   0.56041   0.47782   1.000
    O362    O    0.77798   0.06040   0.47782   1.000
    O363    O    0.77798   0.56041   0.47782   1.000
    O364    O    0.44778   0.08264   0.49495   1.000
    O365    O    0.44778   0.58265   0.49495   1.000
    O366    O    0.94778   0.08264   0.49495   1.000
    O367    O    0.94778   0.58265   0.49495   1.000
    O368    O    0.16665   0.05095   0.57488   1.000
    O369    O    0.16664   0.55096   0.57488   1.000
    O370    O    0.66665   0.05095   0.57488   1.000
    O371    O    0.66665   0.55096   0.57488   1.000
    O372    O    0.06284   0.02129   0.57223   1.000
    O373    O    0.08627   0.94881   0.90294   1.000
    O374    O    0.58625   0.44879   0.90290   1.000
    O375    O    0.58627   0.94881   0.90294   1.000
    O376    O    0.08803   0.12048   0.48580   1.000
    O377    O    0.08803   0.62049   0.48585   1.000
    O378    O    0.58803   0.12048   0.48580   1.000
    O379    O    0.58803   0.62049   0.48585   1.000
    O380    O    0.02806   0.18960   0.52221   1.000
    O381    O    0.02805   0.68960   0.52221   1.000
    O382    O    0.52806   0.18960   0.52221   1.000
    O383    O    0.52805   0.68960   0.52221   1.000
    O384    O    0.19784   0.16737   0.50500   1.000
    O385    O    0.19783   0.66737   0.50500   1.000
    O386    O    0.69784   0.16737   0.50500   1.000
    O387    O    0.69784   0.66737   0.50500   1.000
    O388    O    0.08313   0.44898   0.07489   1.000
    O389    O    0.08313   0.94899   0.07489   1.000
    O390    O    0.58313   0.44899   0.07480   1.000
    O391    O    0.58313   0.94899   0.07489   1.000
    O392    O    0.18677   0.47896   0.07208   1.000
    O393    O    0.18677   0.97896   0.07208   1.000
    O394    O    0.68677   0.47896   0.07208   1.000
    O395    O    0.68677   0.97896   0.07208   1.000
    O396    O    0.06104   0.01898   0.40664   1.000
    O397    O    0.06104   0.51899   0.40663   1.000
    O398    O    0.56104   0.01898   0.40664   1.000
    O399    O    0.56104   0.51899   0.40663   1.000
    O400    O    0.16371   0.05118   0.40294   1.000
    O401    O    0.16371   0.55119   0.40294   1.000
    O402    O    0.66371   0.05118   0.40294   1.000
    O403    O    0.66371   0.55119   0.40294   1.000
    O404    O    0.16201   0.37950   0.98583   1.000
    O405    O    0.16201   0.87952   0.98581   1.000
    O406    O    0.66201   0.37950   0.98583   1.000
    O407    O    0.66201   0.87952   0.98581   1.000
    O408    O    0.22195   0.31041   0.02219   1.000
    O409    O    0.22195   0.81042   0.02220   1.000
    O410    O    0.72195   0.31041   0.02219   1.000
    O411    O    0.72195   0.81042   0.02220   1.000
    O412    O    0.05218   0.33258   0.00481   1.000
    O413    O    0.05218   0.83260   0.00482   1.000
    O414    O    0.55218   0.33258   0.00481   1.000
    O415    O    0.55218   0.83260   0.00482   1.000
loop_
    _geom_bond_atom_site_label_1
    _geom_bond_atom_site_label_2
    _geom_bond_distance
    _geom_bond_site_symmetry_2
    _ccdc_geom_bond_type
    H19    C68       1.09797  1_554   S
    H18    C175      1.09774  1_554   S
    H17    C174      1.09797  1_554   S
    H16    C173      1.09774  1_554   S
    O414   C306      1.42611      .   S
    O412   C304      1.42610      .   S
    O415   C307      1.42611      .   S
    O413   C305      1.42609      .   S
    C303   O411      1.25713      .   S
    C303   C307      1.52996      .   S
    C303   O407      1.28382  1_554   S
    C301   O409      1.25713      .   S
    C301   C305      1.52998      .   S
    C301   O405      1.28382  1_554   S
    C302   O410      1.25683      .   S
    C302   C306      1.52961      .   S
    C302   O406      1.28435  1_554   S
    C300   O408      1.25682      .   S
    C300   C304      1.52963      .   S
    C300   O404      1.28435  1_554   S
    O328   C169      1.28428  1_554   S
    O329   C170      1.28500  1_554   S
    O330   C171      1.28428  1_554   S
    O331   C172      1.28431  1_554   S
    C306   C310      1.53317      .   S
    C306   H123      1.10561  1_554   S
    C304   C308      1.53317      .   S
    C304   H121      1.10561  1_554   S
    C305   C309      1.53329      .   S
    C305   H122      1.10564      .   S
    C307   C311      1.53330      .   S
    C307   H124      1.10564      .   S
    O395   C271      1.28232      .   S
    O394   C270      1.28232      .   S
    O393   C269      1.28232      .   S
    O392   C268      1.28233      .   S
    O390   C270      1.27209      .   S
    O388   C268      1.27134      .   S
    O389   C269      1.27131      .   S
    O391   C271      1.27131      .   S
    O351   C216      1.28654      .   S
    O350   C215      1.28666      .   S
    O349   C214      1.28655      .   S
    O348   C213      1.28665      .   S
    O354   C215      1.26789      .   S
    O352   C213      1.26790      .   S
    O353   C214      1.26783      .   S
    O355   C216      1.26782      .   S
    C268   C272      1.49708      .   S
    C269   C273      1.49727      .   S
    C270   C274      1.49709      .   S
    C271   C275      1.49727      .   S
    C308   H125      1.09746      .   S
    C308   H129      1.09743      .   S
    C308   H133      1.09915      .   S
    C310   H127      1.09745      .   S
    C310   H131      1.09743      .   S
    C310   H135      1.09917      .   S
    C309   H126      1.09743      .   S
    C309   H130      1.09743      .   S
    C309   H134      1.09908      .   S
    C311   H128      1.09741      .   S
    C311   H132      1.09742      .   S
    C311   H136      1.09910      .   S
    C214   C210      1.49751      .   S
    C216   C212      1.49752      .   S
    C213   C209      1.49731      .   S
    C215   C211      1.49731      .   S
    C274   C279      1.40340      .   S
    C274   C282      1.40337      .   S
    C272   C277      1.40340      .   S
    C272   C280      1.40337      .   S
    C275   C278      1.40333  1_565   S
    C275   C283      1.40336      .   S
    C273   C276      1.40333  1_565   S
    C273   C281      1.40334      .   S
    H108   C279      1.08879      .   S
    H106   C277      1.08879      .   S
    H107   C278      1.08871      .   S
    H105   C276      1.08872      .   S
    H112   C283      1.08885      .   S
    H110   C281      1.08885      .   S
    H111   C282      1.08889      .   S
    H109   C280      1.08888      .   S
    C209   C205      1.40317      .   S
    C209   C201      1.40358      .   S
    C210   C206      1.40316      .   S
    C210   C202      1.40348      .   S
    C212   C208      1.40315      .   S
    C212   C204      1.40349      .   S
    C211   C207      1.40317      .   S
    C211   C203      1.40358      .   S
    H47    C208      1.08847      .   S
    H45    C206      1.08846      .   S
    H46    C207      1.08843      .   S
    H44    C205      1.08843      .   S
    H42    C203      1.08892      .   S
    H40    C201      1.08892      .   S
    H43    C204      1.08890      .   S
    H41    C202      1.08889      .   S
    C277   C285      1.39060      .   S
    C279   C287      1.39060      .   S
    C276   C284      1.39058      .   S
    C278   C286      1.39058      .   S
    C283   C291      1.39061      .   S
    C281   C289      1.39061      .   S
    C282   C290      1.39062      .   S
    C280   C288      1.39063      .   S
    C206   C198      1.39053      .   S
    C208   C200      1.39052      .   S
    C207   C199      1.39053      .   S
    C205   C197      1.39052      .   S
    C204   C196      1.39070      .   S
    C203   C195      1.39051      .   S
    C202   C194      1.39071      .   S
    C201   C193      1.39051      .   S
    C287   H116      1.08879      .   S
    C287   C295      1.40343      .   S
    C285   H114      1.08880      .   S
    C285   C293      1.40344      .   S
    C284   H113      1.08886      .   S
    C284   C292      1.40353      .   S
    C286   H115      1.08886      .   S
    C286   C294      1.40353      .   S
    C289   H118      1.08841      .   S
    C289   C292      1.40309  1_565   S
    C291   H120      1.08841      .   S
    C291   C294      1.40309  1_565   S
    C290   H119      1.08847      .   S
    C290   C295      1.40307      .   S
    C288   H117      1.08846      .   S
    C288   C293      1.40306      .   S
    C200   H39       1.08887      .   S
    C200   C192      1.40344      .   S
    C198   H37       1.08887      .   S
    C198   C190      1.40345      .   S
    C197   H36       1.08890      .   S
    C197   C189      1.40344      .   S
    C199   H38       1.08889      .   S
    C199   C191      1.40344      .   S
    C195   H34       1.08875      .   S
    C195   C191      1.40341      .   S
    C193   H32       1.08875      .   S
    C193   C189      1.40341      .   S
    C196   H35       1.08869      .   S
    C196   C192      1.40340      .   S
    C194   H33       1.08870      .   S
    C194   C190      1.40337      .   S
    C295   C299      1.49735      .   S
    C293   C297      1.49734      .   S
    C292   C296      1.49720      .   S
    C294   C298      1.49720      .   S
    C189   C185      1.49723      .   S
    C192   C188      1.49723      .   S
    C191   C187      1.49723      .   S
    C190   C186      1.49722      .   S
    H63    C228      1.09910      .   S
    H62    C227      1.09911      .   S
    H61    C226      1.09908      .   S
    H60    C225      1.09919      .   S
    C299   O403      1.26792      .   S
    C299   O399      1.28645      .   S
    C298   O402      1.26792      .   S
    C298   O398      1.28651      .   S
    C297   O401      1.26793      .   S
    C297   O397      1.28645      .   S
    C296   O400      1.26792      .   S
    C296   O396      1.28652      .   S
    H56    C225      1.09750      .   S
    H58    C227      1.09743      .   S
    H57    C226      1.09744      .   S
    H59    C228      1.09744      .   S
    H52    C225      1.09745      .   S
    H54    C227      1.09739      .   S
    H53    C226      1.09740      .   S
    H55    C228      1.09741      .   S
    C227   C223      1.53345      .   S
    C228   C224      1.53309      .   S
    C225   C221      1.53325      .   S
    C226   C222      1.53309      .   S
    C188   O343      1.27133      .   S
    C188   O347      1.28264      .   S
    C187   O342      1.27135      .   S
    C187   O346      1.28265      .   S
    C186   O341      1.27133      .   S
    C186   O345      1.28265      .   S
    C185   O340      1.27134      .   S
    C185   O344      1.28265      .   S
    C222   C218      1.52962      .   S
    C222   O365      1.42615      .   S
    C222   H49       1.10574      .   S
    C224   C220      1.52962      .   S
    C224   O367      1.42615      .   S
    C224   H51       1.10574      .   S
    C221   C217      1.52953      .   S
    C221   O364      1.42602      .   S
    C221   H48       1.10563      .   S
    C223   C219      1.52951      .   S
    C223   O366      1.42601      .   S
    C223   H50       1.10565      .   S
    O360   C217      1.25679      .   S
    O361   C218      1.25682      .   S
    O362   C219      1.25678      .   S
    O363   C220      1.25682      .   S
    O378   C258      1.28483      .   S
    O376   C256      1.28483      .   S
    O379   C259      1.28446      .   S
    O377   C257      1.28446      .   S
    C219   O358      1.28448      .   S
    C217   O356      1.28447      .   S
    C220   O359      1.28440      .   S
    C218   O357      1.28440      .   S
    H85    C261      1.10564      .   S
    H87    C263      1.10564      .   S
    H86    C262      1.10569      .   S
    H84    C260      1.10569      .   S
    O387   C263      1.42612      .   S
    O384   C260      1.42613      .   S
    O385   C261      1.42610      .   S
    O386   C262      1.42613      .   S
    C257   O381      1.25684      .   S
    C257   C261      1.52961      .   S
    C259   O383      1.25684      .   S
    C259   C263      1.52961      .   S
    C258   O382      1.25681      .   S
    C258   C262      1.52961      .   S
    C256   O380      1.25681      .   S
    C256   C260      1.52961      .   S
    C263   C267      1.53222      .   S
    C261   C265      1.53222      .   S
    C262   C266      1.53316      .   S
    C260   C264      1.53316      .   S
    O176   C230      1.28273      .   S
    O178   C232      1.28272      .   S
    O177   C231      1.28277      .   S
    O372   C229      1.28278      .   S
    O368   C229      1.27144      .   S
    O369   C230      1.27139      .   S
    O370   C231      1.27146      .   S
    O371   C232      1.27143      .   S
    O322   C167      1.29021      .   S
    O323   C168      1.28645      .   S
    O321   C166      1.28645      .   S
    O320   C165      1.28647      .   S
    O326   C167      1.26858      .   S
    O327   C168      1.26796      .   S
    O325   C166      1.26796      .   S
    O324   C165      1.26794      .   S
    C232   C236      1.49731      .   S
    C230   C234      1.49731      .   S
    C229   C233      1.49726      .   S
    C231   C235      1.49726      .   S
    C267   H91       1.09769      .   S
    C267   H95       1.09775      .   S
    C267   H99       1.09971      .   S
    C265   H89       1.09768      .   S
    C265   H93       1.09775      .   S
    C265   H97       1.09973      .   S
    C266   H90       1.09745      .   S
    C266   H94       1.09745      .   S
    C266   H98       1.09918      .   S
    C264   H88       1.09743      .   S
    C264   H92       1.09744      .   S
    C264   H96       1.09918      .   S
    C168   C164      1.49711      .   S
    C166   C162      1.49711      .   S
    C165   C161      1.49738      .   S
    C167   C163      1.49741      .   S
    C234   C100      1.40341      .   S
    C234   C237      1.40338      .   S
    C236   C102      1.40340      .   S
    C236   C239      1.40338      .   S
    C235   C103      1.40338  1_545   S
    C235   C238      1.40341      .   S
    C233   C101      1.40340  1_545   S
    C233   C104      1.40340      .   S
    H64    C100      1.08871      .   S
    H66    C102      1.08872      .   S
    H65    C101      1.08875      .   S
    H67    C103      1.08877      .   S
    H72    C104      1.08887      .   S
    H74    C238      1.08886      .   S
    H73    C237      1.08915      .   S
    H75    C239      1.08887      .   S
    C162   C158      1.40325      .   S
    C162   C154      1.40367      .   S
    C164   C160      1.40326      .   S
    C164   C156      1.40367      .   S
    C161   C157      1.40311      .   S
    C161   C153      1.40345      .   S
    C163   C159      1.40312      .   S
    C163   C155      1.40344      .   S
    H13    C158      1.08840      .   S
    H15    C160      1.08838      .   S
    H14    C159      1.08850      .   S
    H12    C157      1.08837      .   S
    H9     C154      1.08889      .   S
    H11    C156      1.08889      .   S
    H10    C155      1.08882      .   S
    H8     C153      1.08880      .   S
    C100   C240      1.39059      .   S
    C102   C242      1.39060      .   S
    C101   C241      1.39072      .   S
    C103   C243      1.39072      .   S
    C104   C244      1.39057      .   S
    C238   C246      1.39057      .   S
    C239   C247      1.39068      .   S
    C237   C245      1.39067      .   S
    C160   C152      1.39068      .   S
    C158   C150      1.39068      .   S
    C157   C149      1.39072      .   S
    C159   C151      1.39071      .   S
    C154   C146      1.39065      .   S
    C156   C148      1.39066      .   S
    C153   C145      1.39069      .   S
    C155   C147      1.39067      .   S
    C240   H76       1.08837      .   S
    C240   C248      1.40290      .   S
    C242   H78       1.08837      .   S
    C242   C250      1.40291      .   S
    C243   H79       1.08890      .   S
    C243   C251      1.40356      .   S
    C241   H77       1.08888      .   S
    C241   C249      1.40358      .   S
    C244   H80       1.08771      .   S
    C244   C249      1.40318  1_545   S
    C246   H82       1.08771      .   S
    C246   C251      1.40319  1_545   S
    C245   H81       1.08848      .   S
    C245   C248      1.40253      .   S
    C247   H83       1.08849      .   S
    C247   C250      1.40252      .   S
    C150   H5        1.08882      .   S
    C150   C142      1.40335      .   S
    C152   H7        1.08884      .   S
    C152   C144      1.40334      .   S
    C149   H4        1.08882      .   S
    C149   C141      1.40331      .   S
    C151   H6        1.08827      .   S
    C151   C143      1.40328      .   S
    C146   H1        1.08853      .   S
    C146   C142      1.40332      .   S
    C148   H3        1.08851      .   S
    C148   C144      1.40333      .   S
    C145   H0        1.08870      .   S
    C145   C141      1.40333      .   S
    C147   H2        1.08871      .   S
    C147   C143      1.40336      .   S
    C248   C252      1.49862      .   S
    C250   C254      1.49862      .   S
    C251   C255      1.49733      .   S
    C249   C253      1.49733      .   S
    C144   C140      1.49602      .   S
    C142   C138      1.49602      .   S
    C143   C139      1.49726      .   S
    C141   C137      1.49727      .   S
    H31    C184      1.09917      .   S
    H29    C70       1.09877      .   S
    H30    C71       1.09853      .   S
    H28    C69       1.09915      .   S
    C252   O183      1.26758      .   S
    C252   O179      1.28652      .   S
    C254   O374      1.26757      .   S
    C254   O181      1.28654      .   S
    C253   O373      1.26788      .   S
    C253   O180      1.28622      .   S
    C255   O375      1.26786      .   S
    C255   O182      1.28622      .   S
    H24    C69       1.09777      .   S
    H25    C70       1.09735      .   S
    H27    C184      1.09749      .   S
    H26    C71       1.09707      .   S
    H21    C70       1.09723      .   S
    H23    C184      1.09741      .   S
    H20    C69       1.09742      .   S
    H22    C71       1.09713      .   S
    C138   O313      1.27203      .   S
    C138   O317      1.28306      .   S
    C140   O315      1.27202      .   S
    C140   O319      1.28306      .   S
    C137   O312      1.27153      .   S
    C137   O316      1.28248      .   S
    C139   O314      1.27152      .   S
    C139   O318      1.28247      .   S
    C70    C174      1.53444      .   S
    C71    C175      1.53472      .   S
    C184   C68       1.53364      .   S
    C69    C173      1.53352      .   S
    C68    C172      1.52928      .   S
    C68    O339      1.42640      .   S
    C174   C170      1.52890      .   S
    C174   O337      1.42640      .   S
    C175   C171      1.52931      .   S
    C175   O338      1.42644      .   S
    C173   C169      1.52931      .   S
    C173   O336      1.42644      .   S
    O333   C170      1.25639      .   S
    O335   C172      1.25675      .   S
    O332   C169      1.25672      .   S
    O334   C171      1.25674      .   S
