# CIF file generated by openbabel 2.4.90, see http://openbabel.sf.net
data_I
_chemical_name_common ''
_cell_length_a 20.75
_cell_length_b 25.128
_cell_length_c 20.218
_cell_angle_alpha 90.024
_cell_angle_beta 89.988
_cell_angle_gamma 90.036
_space_group_name_H-M_alt 'P 1'
_space_group_name_Hall 'P 1'
loop_
    _symmetry_equiv_pos_as_xyz
    x,y,z
loop_
    _atom_site_label
    _atom_site_type_symbol
    _atom_site_fract_x
    _atom_site_fract_y
    _atom_site_fract_z
    _atom_site_occupancy
    C0      C    0.46629   0.30343   0.01119   1.000
    C1      C    0.46628   0.80344   0.01119   1.000
    C2      C    0.96629   0.30343   0.01119   1.000
    C3      C    0.96628   0.80344   0.01119   1.000
    C4      C    0.31415   0.33825   0.01123   1.000
    C5      C    0.31414   0.83826   0.01123   1.000
    C6      C    0.81415   0.33825   0.01123   1.000
    C7      C    0.81414   0.83826   0.01123   1.000
    C8      C    0.28372   0.19656   0.51119   1.000
    C9      C    0.28372   0.69657   0.51119   1.000
    C10     C    0.78372   0.19656   0.51119   1.000
    C11     C    0.78372   0.69657   0.51119   1.000
    C12     C    0.43584   0.16184   0.51111   1.000
    C13     C    0.43583   0.66185   0.51111   1.000
    C14     C    0.93584   0.16184   0.51111   1.000
    C15     C    0.93583   0.66185   0.51111   1.000
    C16     C    0.03365   0.05346   0.48881   1.000
    C17     C    0.03365   0.55346   0.48881   1.000
    C18     C    0.53365   0.05346   0.48881   1.000
    C19     C    0.53365   0.55346   0.48881   1.000
    C20     C    0.18581   0.08816   0.48800   1.000
    C21     C    0.18581   0.58817   0.48890   1.000
    C22     C    0.68581   0.08816   0.48800   1.000
    C23     C    0.68581   0.58817   0.48890   1.000
    C24     C    0.21635   0.44654   0.98889   1.000
    C25     C    0.21634   0.94656   0.98888   1.000
    C26     C    0.71635   0.44654   0.98889   1.000
    C27     C    0.71634   0.94656   0.98888   1.000
    C28     C    0.06417   0.41181   0.98887   1.000
    C29     C    0.06416   0.91182   0.98887   1.000
    C30     C    0.56417   0.41181   0.98887   1.000
    C31     C    0.56416   0.91182   0.98887   1.000
    C32     C    0.47530   0.23484   0.82313   1.000
    C33     C    0.47530   0.73487   0.82310   1.000
    C34     C    0.97530   0.23484   0.82313   1.000
    C35     C    0.97530   0.73487   0.82310   1.000
    C36     C    0.27995   0.29104   0.81866   1.000
    C37     C    0.28001   0.79119   0.81860   1.000
    C38     C    0.77996   0.29105   0.81860   1.000
    C39     C    0.78001   0.79119   0.81860   1.000
    C40     C    0.46753   0.21030   0.70296   1.000
    C41     C    0.46753   0.71032   0.70294   1.000
    C42     C    0.96753   0.21030   0.70296   1.000
    C43     C    0.96753   0.71032   0.70294   1.000
    C44     C    0.27232   0.26683   0.69859   1.000
    C45     C    0.27238   0.76699   0.69853   1.000
    C46     C    0.77232   0.26684   0.69858   1.000
    C47     C    0.77238   0.76699   0.69853   1.000
    C48     C    0.35960   0.48548   0.00000   1.000
    C49     C    0.35959   0.98549   0.00000   1.000
    C50     C    0.85960   0.48548   0.00000   1.000
    C51     C    0.85959   0.98549   0.00000   1.000
    C52     C    0.31088   0.48098   0.88732   1.000
    C53     C    0.31088   0.98097   0.88730   1.000
    C54     C    0.81089   0.48098   0.88732   1.000
    C55     C    0.81088   0.98097   0.88730   1.000
    C56     C    0.39693   0.47985   0.88330   1.000
    C57     C    0.39692   0.97983   0.88330   1.000
    C58     C    0.89693   0.47985   0.88336   1.000
    C59     C    0.89692   0.97983   0.88332   1.000
    C60     C    0.35164   0.41983   0.87230   1.000
    C61     C    0.35163   0.91981   0.87229   1.000
    C62     C    0.85164   0.41983   0.87230   1.000
    C63     C    0.85163   0.91981   0.87229   1.000
    C64     C    0.27460   0.26512   0.32314   1.000
    C65     C    0.27462   0.76516   0.32315   1.000
    C66     C    0.77460   0.26512   0.32314   1.000
    C67     C    0.77462   0.76516   0.32315   1.000
    C68     C    0.47009   0.20925   0.31867   1.000
    C69     C    0.47007   0.70922   0.31865   1.000
    C70     C    0.97009   0.20925   0.31867   1.000
    C71     C    0.97007   0.70922   0.31865   1.000
    C72     C    0.28239   0.28966   0.20299   1.000
    C73     C    0.28240   0.78971   0.20300   1.000
    C74     C    0.78239   0.28966   0.20299   1.000
    C75     C    0.78240   0.78971   0.20300   1.000
    C76     C    0.47774   0.23346   0.19862   1.000
    C77     C    0.47772   0.73342   0.19860   1.000
    C78     C    0.97774   0.23346   0.19862   1.000
    C79     C    0.97772   0.73342   0.19860   1.000
    C80     C    0.39077   0.01480   0.50002   1.000
    C81     C    0.39076   0.51481   0.50003   1.000
    C82     C    0.89077   0.01480   0.50002   1.000
    C83     C    0.89076   0.51481   0.50003   1.000
    C84     C    0.43856   0.01901   0.38616   1.000
    C85     C    0.43855   0.51900   0.38617   1.000
    C86     C    0.93856   0.01901   0.38616   1.000
    C87     C    0.93855   0.51900   0.38617   1.000
    C88     C    0.35246   0.01980   0.38290   1.000
    C89     C    0.35245   0.51979   0.38292   1.000
    C90     C    0.85246   0.01980   0.38290   1.000
    C91     C    0.85245   0.51979   0.38292   1.000
    C92     C    0.39735   0.07994   0.37112   1.000
    C93     C    0.39733   0.57993   0.37112   1.000
    C94     C    0.89735   0.07994   0.37112   1.000
    C95     C    0.89733   0.57993   0.37112   1.000
    C96     C    0.02439   0.48480   0.67707   1.000
    C97     C    0.02428   0.98509   0.67718   1.000
    C98     C    0.52439   0.48480   0.67707   1.000
    C99     C    0.52428   0.98509   0.67718   1.000
    C100    C    0.22001   0.04059   0.68108   1.000
    C101    C    0.21993   0.54075   0.68110   1.000
    C102    C    0.72001   0.04059   0.68108   1.000
    C103    C    0.71993   0.54074   0.68113   1.000
    C104    C    0.03240   0.46015   0.79710   1.000
    C105    C    0.03229   0.96045   0.79728   1.000
    C106    C    0.53240   0.46015   0.79710   1.000
    C107    C    0.53229   0.96045   0.79728   1.000
    C108    C    0.22790   0.01628   0.80100   1.000
    C109    C    0.22783   0.51640   0.80112   1.000
    C110    C    0.72790   0.01628   0.80100   1.000
    C111    C    0.72783   0.51640   0.80112   1.000
    C112    C    0.14093   0.23521   0.50001   1.000
    C113    C    0.14093   0.73521   0.49993   1.000
    C114    C    0.64093   0.23521   0.50001   1.000
    C115    C    0.64093   0.73521   0.49993   1.000
    C116    C    0.18883   0.23086   0.61383   1.000
    C117    C    0.18882   0.73095   0.61376   1.000
    C118    C    0.68883   0.23086   0.61383   1.000
    C119    C    0.68882   0.73095   0.61376   1.000
    C120    C    0.10273   0.23027   0.61715   1.000
    C121    C    0.10272   0.73036   0.61707   1.000
    C122    C    0.60273   0.23027   0.61715   1.000
    C123    C    0.60272   0.73036   0.61707   1.000
    C124    C    0.14734   0.17003   0.62887   1.000
    C125    C    0.14732   0.67013   0.62887   1.000
    C126    C    0.64734   0.17003   0.62887   1.000
    C127    C    0.64732   0.67013   0.62887   1.000
    C128    C    0.22540   0.01515   0.17695   1.000
    C129    C    0.22535   0.51525   0.17691   1.000
    C130    C    0.72540   0.01515   0.17695   1.000
    C131    C    0.72535   0.51525   0.17691   1.000
    C132    C    0.02986   0.45919   0.18126   1.000
    C133    C    0.02983   0.95927   0.18124   1.000
    C134    C    0.52986   0.45919   0.18126   1.000
    C135    C    0.52983   0.95927   0.18124   1.000
    C136    C    0.21757   0.03968   0.29713   1.000
    C137    C    0.21753   0.53977   0.29709   1.000
    C138    C    0.71757   0.03968   0.29713   1.000
    C139    C    0.71753   0.53978   0.29709   1.000
    C140    C    0.02217   0.48338   0.30135   1.000
    C141    C    0.02213   0.98346   0.30132   1.000
    C142    C    0.52217   0.48338   0.30135   1.000
    C143    C    0.52213   0.98346   0.30132   1.000
    C144    C    0.10914   0.26477   0.99985   1.000
    C145    C    0.10913   0.76477   0.00000   1.000
    C146    C    0.60914   0.26477   0.99985   1.000
    C147    C    0.60913   0.76477   0.00000   1.000
    C148    C    0.06105   0.26911   0.11360   1.000
    C149    C    0.06104   0.76928   0.11374   1.000
    C150    C    0.56105   0.26911   0.11360   1.000
    C151    C    0.56104   0.76928   0.11374   1.000
    C152    C    0.14714   0.26976   0.11705   1.000
    C153    C    0.14713   0.76993   0.11720   1.000
    C154    C    0.64714   0.26976   0.11705   1.000
    C155    C    0.64713   0.76993   0.11720   1.000
    C156    C    0.10246   0.32998   0.12874   1.000
    C157    C    0.10245   0.83017   0.12875   1.000
    C158    C    0.60245   0.32998   0.12874   1.000
    C159    C    0.60245   0.83017   0.12875   1.000
    C160    C    0.38271   0.27993   0.89918   1.000
    C161    C    0.38272   0.77997   0.89910   1.000
    C162    C    0.88271   0.27994   0.89918   1.000
    C163    C    0.88272   0.77997   0.89910   1.000
    C164    C    0.37800   0.26422   0.82790   1.000
    C165    C    0.37802   0.76430   0.82787   1.000
    C166    C    0.87800   0.26423   0.82790   1.000
    C167    C    0.87802   0.76430   0.82787   1.000
    C168    C    0.43108   0.24155   0.79540   1.000
    C169    C    0.43109   0.74161   0.79538   1.000
    C170    C    0.93108   0.24156   0.79540   1.000
    C171    C    0.93109   0.74161   0.79538   1.000
    C172    C    0.32071   0.27335   0.79283   1.000
    C173    C    0.32075   0.77348   0.79278   1.000
    C174    C    0.82071   0.27336   0.79283   1.000
    C175    C    0.82075   0.77348   0.79278   1.000
    C176    C    0.42685   0.22808   0.72882   1.000
    C177    C    0.42686   0.72814   0.72880   1.000
    C178    C    0.92685   0.22808   0.72882   1.000
    C179    C    0.92686   0.72814   0.72880   1.000
    C180    C    0.31654   0.25995   0.72622   1.000
    C181    C    0.31659   0.76008   0.72617   1.000
    C182    C    0.81655   0.25996   0.72622   1.000
    C183    C    0.81659   0.76008   0.72617   1.000
    C184    C    0.36954   0.23715   0.69375   1.000
    C185    C    0.36957   0.73724   0.69370   1.000
    C186    C    0.86954   0.23716   0.69375   1.000
    C187    C    0.86957   0.73724   0.69370   1.000
    C188    C    0.36485   0.22110   0.62258   1.000
    C189    C    0.36486   0.72114   0.62256   1.000
    C190    C    0.86485   0.22110   0.62258   1.000
    C191    C    0.86486   0.72114   0.62256   1.000
    C192    C    0.41906   0.41736   0.99010   1.000
    C193    C    0.41905   0.91737   0.99000   1.000
    C194    C    0.91906   0.41736   0.99010   1.000
    C195    C    0.91905   0.91737   0.99009   1.000
    C196    C    0.35678   0.44718   0.97401   1.000
    C197    C    0.35677   0.94719   0.97400   1.000
    C198    C    0.85678   0.44718   0.97401   1.000
    C199    C    0.85677   0.94719   0.97400   1.000
    C200    C    0.35407   0.45773   0.89936   1.000
    C201    C    0.35405   0.95771   0.89930   1.000
    C202    C    0.85406   0.45773   0.89930   1.000
    C203    C    0.85405   0.95771   0.89934   1.000
    C204    C    0.36723   0.22014   0.39916   1.000
    C205    C    0.36723   0.72015   0.39916   1.000
    C206    C    0.86723   0.22014   0.39916   1.000
    C207    C    0.86723   0.72015   0.39916   1.000
    C208    C    0.37196   0.23589   0.32791   1.000
    C209    C    0.37196   0.73589   0.32791   1.000
    C210    C    0.87196   0.23589   0.32791   1.000
    C211    C    0.87196   0.73589   0.32791   1.000
    C212    C    0.31886   0.25847   0.29541   1.000
    C213    C    0.31887   0.75850   0.29542   1.000
    C214    C    0.81886   0.25847   0.29541   1.000
    C215    C    0.81887   0.75850   0.29542   1.000
    C216    C    0.42930   0.22687   0.29284   1.000
    C217    C    0.42929   0.72685   0.29283   1.000
    C218    C    0.92930   0.22687   0.29284   1.000
    C219    C    0.92929   0.72685   0.29283   1.000
    C220    C    0.32309   0.27195   0.22885   1.000
    C221    C    0.32310   0.77197   0.22885   1.000
    C222    C    0.82309   0.27195   0.22885   1.000
    C223    C    0.82310   0.77197   0.22885   1.000
    C224    C    0.43347   0.24026   0.22625   1.000
    C225    C    0.43346   0.74024   0.22624   1.000
    C226    C    0.93347   0.24026   0.22625   1.000
    C227    C    0.93346   0.74024   0.22624   1.000
    C228    C    0.38044   0.26295   0.19377   1.000
    C229    C    0.38043   0.76295   0.19377   1.000
    C230    C    0.88044   0.26295   0.19377   1.000
    C231    C    0.88044   0.76295   0.19377   1.000
    C232    C    0.38513   0.27895   0.12260   1.000
    C233    C    0.38513   0.77895   0.12259   1.000
    C234    C    0.88513   0.27895   0.12260   1.000
    C235    C    0.88513   0.77895   0.12259   1.000
    C236    C    0.33096   0.08270   0.48971   1.000
    C237    C    0.33096   0.58271   0.48972   1.000
    C238    C    0.83096   0.08270   0.48971   1.000
    C239    C    0.83096   0.58271   0.48972   1.000
    C240    C    0.39320   0.05300   0.47301   1.000
    C241    C    0.39319   0.55301   0.47300   1.000
    C242    C    0.89320   0.05300   0.47301   1.000
    C243    C    0.89319   0.55301   0.47300   1.000
    C244    C    0.39533   0.04215   0.39841   1.000
    C245    C    0.39532   0.54214   0.39841   1.000
    C246    C    0.89533   0.04215   0.39840   1.000
    C247    C    0.89532   0.54214   0.39841   1.000
    C248    C    0.11701   0.02989   0.60088   1.000
    C249    C    0.11702   0.52987   0.60086   1.000
    C250    C    0.61701   0.02989   0.60088   1.000
    C251    C    0.61702   0.52987   0.60086   1.000
    C252    C    0.12177   0.01413   0.67212   1.000
    C253    C    0.12178   0.51407   0.67209   1.000
    C254    C    0.62177   0.01413   0.67212   1.000
    C255    C    0.62178   0.51407   0.67209   1.000
    C256    C    0.06871   0.49144   0.70468   1.000
    C257    C    0.06864   0.99164   0.70476   1.000
    C258    C    0.56871   0.49144   0.70468   1.000
    C259    C    0.56864   0.99164   0.70476   1.000
    C260    C    0.17923   0.02303   0.70703   1.000
    C261    C    0.17919   0.52308   0.70704   1.000
    C262    C    0.67923   0.02303   0.70703   1.000
    C263    C    0.67919   0.52308   0.70704   1.000
    C264    C    0.07307   0.47789   0.77121   1.000
    C265    C    0.07300   0.97811   0.77130   1.000
    C266    C    0.57307   0.47789   0.77121   1.000
    C267    C    0.57300   0.97811   0.77130   1.000
    C268    C    0.18353   0.00958   0.77359   1.000
    C269    C    0.18349   0.50961   0.77360   1.000
    C270    C    0.68353   0.00958   0.77359   1.000
    C271    C    0.68350   0.50961   0.77360   1.000
    C272    C    0.13050   0.48686   0.80610   1.000
    C273    C    0.13048   0.98696   0.80621   1.000
    C274    C    0.63050   0.48686   0.80610   1.000
    C275    C    0.63048   0.98696   0.80621   1.000
    C276    C    0.13525   0.47081   0.87731   1.000
    C277    C    0.13523   0.97090   0.87735   1.000
    C278    C    0.63525   0.47081   0.87731   1.000
    C279    C    0.63523   0.97090   0.87735   1.000
    C280    C    0.08101   0.16731   0.51031   1.000
    C281    C    0.08101   0.66732   0.51030   1.000
    C282    C    0.58101   0.16731   0.51031   1.000
    C283    C    0.58101   0.66732   0.51030   1.000
    C284    C    0.14330   0.19700   0.52700   1.000
    C285    C    0.14329   0.69702   0.52696   1.000
    C286    C    0.64330   0.19700   0.52700   1.000
    C287    C    0.64329   0.69702   0.52696   1.000
    C288    C    0.14549   0.20783   0.60160   1.000
    C289    C    0.14548   0.70791   0.60150   1.000
    C290    C    0.64549   0.20783   0.60160   1.000
    C291    C    0.64548   0.70790   0.60150   1.000
    C292    C    0.13270   0.47019   0.10083   1.000
    C293    C    0.13271   0.97019   0.10083   1.000
    C294    C    0.63271   0.47019   0.10083   1.000
    C295    C    0.63271   0.97019   0.10083   1.000
    C296    C    0.12798   0.48593   0.17209   1.000
    C297    C    0.12798   0.98593   0.17210   1.000
    C298    C    0.62798   0.48593   0.17209   1.000
    C299    C    0.62798   0.98593   0.17210   1.000
    C300    C    0.18111   0.00851   0.20464   1.000
    C301    C    0.18109   0.50857   0.20462   1.000
    C302    C    0.68111   0.00851   0.20464   1.000
    C303    C    0.68109   0.50857   0.20462   1.000
    C304    C    0.07064   0.47684   0.20713   1.000
    C305    C    0.07061   0.97689   0.20712   1.000
    C306    C    0.57064   0.47684   0.20713   1.000
    C307    C    0.57061   0.97689   0.20712   1.000
    C308    C    0.17686   0.02196   0.27122   1.000
    C309    C    0.17684   0.52202   0.27120   1.000
    C310    C    0.67686   0.02196   0.27122   1.000
    C311    C    0.67684   0.52202   0.27120   1.000
    C312    C    0.06644   0.49022   0.27374   1.000
    C313    C    0.06642   0.99026   0.27373   1.000
    C314    C    0.56644   0.49022   0.27374   1.000
    C315    C    0.56642   0.99026   0.27373   1.000
    C316    C    0.11948   0.01295   0.30625   1.000
    C317    C    0.11948   0.51296   0.30624   1.000
    C318    C    0.61948   0.01295   0.30625   1.000
    C319    C    0.61948   0.51296   0.30624   1.000
    C320    C    0.11480   0.02895   0.37743   1.000
    C321    C    0.11479   0.52895   0.37743   1.000
    C322    C    0.61480   0.02895   0.37743   1.000
    C323    C    0.61479   0.52896   0.37743   1.000
    C324    C    0.16901   0.33269   0.01026   1.000
    C325    C    0.16900   0.83271   0.01020   1.000
    C326    C    0.66901   0.33269   0.01026   1.000
    C327    C    0.66900   0.83271   0.01020   1.000
    C328    C    0.10671   0.30298   0.02686   1.000
    C329    C    0.10670   0.80302   0.02693   1.000
    C330    C    0.60671   0.30298   0.02686   1.000
    C331    C    0.60670   0.80302   0.02693   1.000
    C332    C    0.10439   0.29217   0.10145   1.000
    C333    C    0.10438   0.79232   0.10155   1.000
    C334    C    0.60439   0.29217   0.10145   1.000
    C335    C    0.60438   0.79232   0.10155   1.000
    C336    C    0.33315   0.30112   0.92515   1.000
    C337    C    0.33315   0.80113   0.92514   1.000
    C338    C    0.83315   0.30112   0.92515   1.000
    C339    C    0.83315   0.80113   0.92514   1.000
    C340    C    0.43677   0.27116   0.92790   1.000
    C341    C    0.43677   0.77118   0.92789   1.000
    C342    C    0.93677   0.27116   0.92790   1.000
    C343    C    0.93677   0.77118   0.92789   1.000
    C344    C    0.31109   0.23103   0.59340   1.000
    C345    C    0.31110   0.73106   0.59338   1.000
    C346    C    0.81110   0.23103   0.59300   1.000
    C347    C    0.81110   0.73106   0.59338   1.000
    C348    C    0.41373   0.19884   0.59708   1.000
    C349    C    0.41373   0.69886   0.59707   1.000
    C350    C    0.91373   0.19884   0.59700   1.000
    C351    C    0.91373   0.69886   0.59707   1.000
    C352    C    0.41204   0.37045   0.01423   1.000
    C353    C    0.41203   0.87046   0.01423   1.000
    C354    C    0.91204   0.37045   0.01423   1.000
    C355    C    0.91203   0.87046   0.01423   1.000
    C356    C    0.47201   0.43961   0.97792   1.000
    C357    C    0.47200   0.93961   0.97791   1.000
    C358    C    0.97201   0.43961   0.97792   1.000
    C359    C    0.97200   0.93961   0.97791   1.000
    C360    C    0.30231   0.41777   0.99679   1.000
    C361    C    0.30230   0.91778   0.99678   1.000
    C362    C    0.80231   0.41777   0.99679   1.000
    C363    C    0.80230   0.91778   0.99678   1.000
    C364    C    0.41681   0.19902   0.42511   1.000
    C365    C    0.41680   0.69902   0.42511   1.000
    C366    C    0.91681   0.19902   0.42511   1.000
    C367    C    0.91680   0.69902   0.42511   1.000
    C368    C    0.31313   0.22883   0.42788   1.000
    C369    C    0.31312   0.72884   0.42788   1.000
    C370    C    0.81313   0.22883   0.42788   1.000
    C371    C    0.81312   0.72884   0.42788   1.000
    C372    C    0.43890   0.26902   0.09340   1.000
    C373    C    0.43890   0.76902   0.09340   1.000
    C374    C    0.93890   0.26902   0.09340   1.000
    C375    C    0.93890   0.76902   0.09340   1.000
    C376    C    0.33624   0.30115   0.09709   1.000
    C377    C    0.33624   0.80115   0.09709   1.000
    C378    C    0.83624   0.30115   0.09709   1.000
    C379    C    0.83624   0.80115   0.09709   1.000
    C380    C    0.33802   0.12953   0.51416   1.000
    C381    C    0.33802   0.62954   0.51416   1.000
    C382    C    0.83802   0.12953   0.51416   1.000
    C383    C    0.83802   0.62954   0.51416   1.000
    C384    C    0.27798   0.06040   0.47782   1.000
    C385    C    0.27798   0.56041   0.47782   1.000
    C386    C    0.77798   0.06040   0.47782   1.000
    C387    C    0.77798   0.56041   0.47782   1.000
    C388    C    0.44778   0.08264   0.49495   1.000
    C389    C    0.44778   0.58265   0.49495   1.000
    C390    C    0.94778   0.08264   0.49495   1.000
    C391    C    0.94778   0.58265   0.49495   1.000
    C392    C    0.16665   0.05095   0.57488   1.000
    C393    C    0.16664   0.55096   0.57488   1.000
    C394    C    0.66665   0.05095   0.57488   1.000
    C395    C    0.66665   0.55096   0.57488   1.000
    C396    C    0.06284   0.02129   0.57223   1.000
    C397    C    0.06285   0.52127   0.57221   1.000
    C398    C    0.56284   0.02129   0.57223   1.000
    C399    C    0.56285   0.52127   0.57221   1.000
    C400    C    0.18914   0.48051   0.90637   1.000
    C401    C    0.18910   0.98066   0.90640   1.000
    C402    C    0.68915   0.48051   0.90637   1.000
    C403    C    0.68910   0.98066   0.90640   1.000
    C404    C    0.08625   0.44879   0.90290   1.000
    C405    C    0.08627   0.94881   0.90294   1.000
    C406    C    0.58625   0.44879   0.90290   1.000
    C407    C    0.58627   0.94881   0.90294   1.000
    C408    C    0.08803   0.12048   0.48580   1.000
    C409    C    0.08803   0.62049   0.48585   1.000
    C410    C    0.58803   0.12048   0.48580   1.000
    C411    C    0.58803   0.62049   0.48585   1.000
    C412    C    0.02806   0.18960   0.52221   1.000
    C413    C    0.02805   0.68960   0.52221   1.000
    C414    C    0.52806   0.18960   0.52221   1.000
    C415    C    0.52805   0.68960   0.52221   1.000
    C416    C    0.19784   0.16737   0.50500   1.000
    C417    C    0.19783   0.66737   0.50500   1.000
    C418    C    0.69784   0.16737   0.50500   1.000
    C419    C    0.69784   0.66737   0.50500   1.000
    C420    C    0.08313   0.44898   0.07489   1.000
    C421    C    0.08313   0.94899   0.07489   1.000
    C422    C    0.58313   0.44899   0.07480   1.000
    C423    C    0.58313   0.94899   0.07489   1.000
    C424    C    0.18677   0.47896   0.07208   1.000
    C425    C    0.18677   0.97896   0.07208   1.000
    C426    C    0.68677   0.47896   0.07208   1.000
    C427    C    0.68677   0.97896   0.07208   1.000
    C428    C    0.06104   0.01898   0.40664   1.000
    C429    C    0.06104   0.51899   0.40663   1.000
    C430    C    0.56104   0.01898   0.40664   1.000
    C431    C    0.56104   0.51899   0.40663   1.000
    C432    C    0.16371   0.05118   0.40294   1.000
    C433    C    0.16371   0.55119   0.40294   1.000
    C434    C    0.66371   0.05118   0.40294   1.000
    C435    C    0.66371   0.55119   0.40294   1.000
    C436    C    0.16201   0.37950   0.98583   1.000
    C437    C    0.16201   0.87952   0.98581   1.000
    C438    C    0.66201   0.37950   0.98583   1.000
    C439    C    0.66201   0.87952   0.98581   1.000
    C440    C    0.22195   0.31041   0.02219   1.000
    C441    C    0.22195   0.81042   0.02220   1.000
    C442    C    0.72195   0.31041   0.02219   1.000
    C443    C    0.72195   0.81042   0.02220   1.000
    C444    C    0.05218   0.33258   0.00481   1.000
    C445    C    0.05218   0.83260   0.00482   1.000
    C446    C    0.55218   0.33258   0.00481   1.000
    C447    C    0.55218   0.83260   0.00482   1.000
    O448    O    0.85818   0.96634   0.98700   1.000
    O449    O    0.85819   0.46633   0.98700   1.000
    O450    O    0.35818   0.96634   0.98700   1.000
    O451    O    0.35819   0.46633   0.98700   1.000
    O452    O    0.50923   0.31801   0.00800   1.000
    O453    O    0.57945   0.31778   0.01583   1.000
    O454    O    0.00923   0.31801   0.00800   1.000
    O455    O    0.07945   0.31778   0.01583   1.000
    O456    O    0.50923   0.81802   0.00800   1.000
    O457    O    0.57944   0.81781   0.01587   1.000
    O458    O    0.00923   0.81802   0.00800   1.000
    O459    O    0.07944   0.81781   0.01587   1.000
    O460    O    0.69548   0.82157   0.01620   1.000
    O461    O    0.63785   0.81787   0.01856   1.000
    O462    O    0.66551   0.85611   0.99800   1.000
    O463    O    0.19547   0.82157   0.01620   1.000
    O464    O    0.13785   0.81787   0.01856   1.000
    O465    O    0.16551   0.85611   0.99800   1.000
    O466    O    0.69548   0.32155   0.01622   1.000
    O467    O    0.63786   0.31783   0.01856   1.000
    O468    O    0.66551   0.35610   0.99804   1.000
    O469    O    0.19548   0.32155   0.01622   1.000
    O470    O    0.13786   0.31783   0.01856   1.000
    O471    O    0.16551   0.35610   0.99804   1.000
    O472    O    0.43916   0.83695   0.01271   1.000
    O473    O    0.45259   0.78623   0.05229   1.000
    O474    O    0.45153   0.78731   0.96954   1.000
    O475    O    0.43916   0.33694   0.01271   1.000
    O476    O    0.45259   0.28622   0.05229   1.000
    O477    O    0.45153   0.28730   0.96954   1.000
    O478    O    0.93916   0.33694   0.01271   1.000
    O479    O    0.95259   0.28623   0.05229   1.000
    O480    O    0.95153   0.28730   0.96954   1.000
    O481    O    0.93916   0.83695   0.01271   1.000
    O482    O    0.95259   0.78623   0.05229   1.000
    O483    O    0.95153   0.78731   0.96954   1.000
    O484    O    0.26804   0.82434   0.01671   1.000
    O485    O    0.32519   0.81971   0.05416   1.000
    O486    O    0.32364   0.81969   0.96818   1.000
    O487    O    0.76804   0.82434   0.01671   1.000
    O488    O    0.82519   0.81971   0.05416   1.000
    O489    O    0.82365   0.81969   0.96818   1.000
    O490    O    0.76805   0.32433   0.01671   1.000
    O491    O    0.82520   0.31970   0.05416   1.000
    O492    O    0.82365   0.31968   0.96819   1.000
    O493    O    0.26805   0.32433   0.01671   1.000
    O494    O    0.32520   0.31970   0.05416   1.000
    O495    O    0.32365   0.31968   0.96819   1.000
    O496    O    0.41555   0.39391   0.00216   1.000
    O497    O    0.41554   0.89391   0.00211   1.000
    O498    O    0.91555   0.39391   0.00216   1.000
    O499    O    0.91554   0.89391   0.00216   1.000
    O500    O    0.60555   0.29757   0.06415   1.000
    O501    O    0.60792   0.28387   0.01335   1.000
    O502    O    0.10555   0.29757   0.06415   1.000
    O503    O    0.10792   0.28387   0.01335   1.000
    O504    O    0.10554   0.79767   0.06424   1.000
    O505    O    0.10792   0.78390   0.01346   1.000
    O506    O    0.60554   0.79767   0.06424   1.000
    O507    O    0.60792   0.78390   0.01346   1.000
    O508    O    0.65974   0.97457   0.08645   1.000
    O509    O    0.70155   0.96276   0.03048   1.000
    O510    O    0.65974   0.47457   0.08645   1.000
    O511    O    0.70156   0.46275   0.03049   1.000
    O512    O    0.15974   0.97457   0.08645   1.000
    O513    O    0.20155   0.96276   0.03048   1.000
    O514    O    0.15974   0.47457   0.08645   1.000
    O515    O    0.20156   0.46275   0.03049   1.000
    O516    O    0.60792   0.45959   0.08781   1.000
    O517    O    0.57365   0.43040   0.03183   1.000
    O518    O    0.10792   0.45959   0.08786   1.000
    O519    O    0.07365   0.43040   0.03188   1.000
    O520    O    0.10792   0.95959   0.08786   1.000
    O521    O    0.07365   0.93041   0.03188   1.000
    O522    O    0.60792   0.95959   0.08786   1.000
    O523    O    0.57365   0.93041   0.03188   1.000
    O524    O    0.91202   0.77399   0.10799   1.000
    O525    O    0.91202   0.27398   0.10800   1.000
    O526    O    0.41202   0.77399   0.10799   1.000
    O527    O    0.41202   0.27398   0.10800   1.000
    O528    O    0.86069   0.29005   0.10984   1.000
    O529    O    0.36069   0.29005   0.10984   1.000
    O530    O    0.36069   0.79005   0.10984   1.000
    O531    O    0.86069   0.79005   0.10984   1.000
    O532    O    0.13034   0.47806   0.13646   1.000
    O533    O    0.13034   0.97806   0.13646   1.000
    O534    O    0.63034   0.47806   0.13646   1.000
    O535    O    0.63034   0.97806   0.13646   1.000
    O536    O    0.08272   0.28064   0.10752   1.000
    O537    O    0.12577   0.28097   0.10925   1.000
    O538    O    0.10342   0.31107   0.11509   1.000
    O539    O    0.58272   0.28064   0.10752   1.000
    O540    O    0.62577   0.28097   0.10925   1.000
    O541    O    0.60342   0.31107   0.11509   1.000
    O542    O    0.08271   0.78080   0.10764   1.000
    O543    O    0.12576   0.78112   0.10937   1.000
    O544    O    0.10342   0.81124   0.11515   1.000
    O545    O    0.58271   0.78080   0.10764   1.000
    O546    O    0.62576   0.78112   0.10937   1.000
    O547    O    0.60342   0.81124   0.11515   1.000
    O548    O    0.38278   0.77095   0.15818   1.000
    O549    O    0.88278   0.77095   0.15818   1.000
    O550    O    0.38279   0.27095   0.15818   1.000
    O551    O    0.88279   0.27095   0.15818   1.000
    O552    O    0.65454   0.49725   0.18835   1.000
    O553    O    0.59931   0.48139   0.18961   1.000
    O554    O    0.15454   0.49725   0.18835   1.000
    O555    O    0.09931   0.48139   0.18961   1.000
    O556    O    0.65455   0.99722   0.18837   1.000
    O557    O    0.59930   0.98141   0.18961   1.000
    O558    O    0.15455   0.99722   0.18837   1.000
    O559    O    0.09930   0.98141   0.18961   1.000
    O560    O    0.70322   0.51191   0.19076   1.000
    O561    O    0.20322   0.51191   0.19076   1.000
    O562    O    0.70326   0.01183   0.19079   1.000
    O563    O    0.20326   0.01183   0.19079   1.000
    O564    O    0.55022   0.96808   0.19418   1.000
    O565    O    0.05022   0.96808   0.19418   1.000
    O566    O    0.55025   0.46802   0.19419   1.000
    O567    O    0.05025   0.46802   0.19419   1.000
    O568    O    0.40696   0.25160   0.21001   1.000
    O569    O    0.35176   0.26745   0.21131   1.000
    O570    O    0.40695   0.75160   0.21000   1.000
    O571    O    0.35177   0.76746   0.21131   1.000
    O572    O    0.90695   0.75159   0.21000   1.000
    O573    O    0.85177   0.76746   0.21131   1.000
    O574    O    0.90696   0.25160   0.21001   1.000
    O575    O    0.85176   0.26745   0.21131   1.000
    O576    O    0.95559   0.73683   0.21242   1.000
    O577    O    0.45559   0.73683   0.21242   1.000
    O578    O    0.95561   0.23686   0.21243   1.000
    O579    O    0.45561   0.23686   0.21243   1.000
    O580    O    0.80274   0.28080   0.21592   1.000
    O581    O    0.30274   0.28080   0.21592   1.000
    O582    O    0.80275   0.78084   0.21592   1.000
    O583    O    0.30275   0.78084   0.21592   1.000
    O584    O    0.17896   0.51529   0.23791   1.000
    O585    O    0.67896   0.51529   0.23791   1.000
    O586    O    0.17899   0.01523   0.23793   1.000
    O587    O    0.67899   0.01523   0.23793   1.000
    O588    O    0.56852   0.98358   0.24042   1.000
    O589    O    0.06852   0.98358   0.24042   1.000
    O590    O    0.56854   0.48353   0.24043   1.000
    O591    O    0.06854   0.48353   0.24043   1.000
    O592    O    0.43138   0.73354   0.25953   1.000
    O593    O    0.93138   0.73354   0.25953   1.000
    O594    O    0.93139   0.23356   0.25954   1.000
    O595    O    0.43139   0.23356   0.25954   1.000
    O596    O    0.82098   0.76524   0.26213   1.000
    O597    O    0.82097   0.26521   0.26213   1.000
    O598    O    0.32098   0.76524   0.26213   1.000
    O599    O    0.32097   0.26521   0.26213   1.000
    O600    O    0.69718   0.53090   0.28414   1.000
    O601    O    0.64816   0.51749   0.28872   1.000
    O602    O    0.19718   0.53090   0.28414   1.000
    O603    O    0.14816   0.51749   0.28872   1.000
    O604    O    0.19722   0.03082   0.28417   1.000
    O605    O    0.14817   0.01745   0.28873   1.000
    O606    O    0.69722   0.03082   0.28417   1.000
    O607    O    0.64817   0.01745   0.28873   1.000
    O608    O    0.04428   0.98686   0.28752   1.000
    O609    O    0.09295   0.00161   0.28999   1.000
    O610    O    0.54428   0.98686   0.28752   1.000
    O611    O    0.59295   0.00161   0.28999   1.000
    O612    O    0.54431   0.48680   0.28754   1.000
    O613    O    0.59296   0.50159   0.28999   1.000
    O614    O    0.04431   0.48680   0.28754   1.000
    O615    O    0.09296   0.50159   0.28999   1.000
    O616    O    0.94968   0.71803   0.30574   1.000
    O617    O    0.90063   0.73137   0.31037   1.000
    O618    O    0.44968   0.71803   0.30574   1.000
    O619    O    0.40063   0.73137   0.31037   1.000
    O620    O    0.44970   0.21806   0.30575   1.000
    O621    O    0.40063   0.23138   0.31037   1.000
    O622    O    0.94970   0.21806   0.30575   1.000
    O623    O    0.90063   0.23138   0.31037   1.000
    O624    O    0.79673   0.26180   0.30927   1.000
    O625    O    0.84541   0.24718   0.31166   1.000
    O626    O    0.29673   0.26180   0.30927   1.000
    O627    O    0.34541   0.24718   0.31166   1.000
    O628    O    0.79674   0.76183   0.30928   1.000
    O629    O    0.84541   0.74720   0.31166   1.000
    O630    O    0.29674   0.76183   0.30928   1.000
    O631    O    0.34541   0.74720   0.31166   1.000
    O632    O    0.61714   0.52096   0.34183   1.000
    O633    O    0.11714   0.52096   0.34183   1.000
    O634    O    0.11714   0.02095   0.34184   1.000
    O635    O    0.61714   0.02095   0.34184   1.000
    O636    O    0.36960   0.22802   0.36353   1.000
    O637    O    0.86960   0.72802   0.36353   1.000
    O638    O    0.86960   0.22802   0.36353   1.000
    O639    O    0.36960   0.72802   0.36353   1.000
    O640    O    0.89632   0.56103   0.38476   1.000
    O641    O    0.89634   0.06104   0.38476   1.000
    O642    O    0.39632   0.56103   0.38476   1.000
    O643    O    0.39634   0.06104   0.38476   1.000
    O644    O    0.63925   0.54007   0.39018   1.000
    O645    O    0.58792   0.52397   0.39203   1.000
    O646    O    0.63926   0.04006   0.39018   1.000
    O647    O    0.58792   0.02396   0.39203   1.000
    O648    O    0.13925   0.54007   0.39018   1.000
    O649    O    0.08792   0.52397   0.39203   1.000
    O650    O    0.13926   0.04006   0.39018   1.000
    O651    O    0.08792   0.02396   0.39203   1.000
    O652    O    0.37389   0.03097   0.39065   1.000
    O653    O    0.87389   0.03097   0.39065   1.000
    O654    O    0.37388   0.53096   0.39066   1.000
    O655    O    0.87388   0.53096   0.39066   1.000
    O656    O    0.41694   0.03058   0.39228   1.000
    O657    O    0.91694   0.03058   0.39228   1.000
    O658    O    0.41693   0.53057   0.39229   1.000
    O659    O    0.91693   0.53057   0.39229   1.000
    O660    O    0.89426   0.04758   0.43570   1.000
    O661    O    0.89425   0.54757   0.43570   1.000
    O662    O    0.39426   0.04757   0.43571   1.000
    O663    O    0.39425   0.54757   0.43570   1.000
    O664    O    0.89202   0.70959   0.41213   1.000
    O665    O    0.84018   0.72449   0.41352   1.000
    O666    O    0.89202   0.20958   0.41213   1.000
    O667    O    0.84018   0.22449   0.41352   1.000
    O668    O    0.39202   0.70959   0.41213   1.000
    O669    O    0.34018   0.72449   0.41352   1.000
    O670    O    0.39202   0.20958   0.41213   1.000
    O671    O    0.34018   0.22449   0.41352   1.000
    O672    O    0.67476   0.56968   0.44592   1.000
    O673    O    0.67476   0.06967   0.44547   1.000
    O674    O    0.17476   0.56968   0.44592   1.000
    O675    O    0.17476   0.06967   0.44547   1.000
    O676    O    0.54734   0.53623   0.44772   1.000
    O677    O    0.04734   0.53623   0.44772   1.000
    O678    O    0.54735   0.03622   0.44772   1.000
    O679    O    0.04735   0.03622   0.44772   1.000
    O680    O    0.42632   0.18043   0.46811   1.000
    O681    O    0.92632   0.68044   0.46811   1.000
    O682    O    0.92632   0.18043   0.46811   1.000
    O683    O    0.42632   0.68044   0.46811   1.000
    O684    O    0.79843   0.21269   0.46953   1.000
    O685    O    0.29843   0.21269   0.46953   1.000
    O686    O    0.29842   0.71270   0.46953   1.000
    O687    O    0.79842   0.71270   0.46953   1.000
    O688    O    0.36207   0.56786   0.48136   1.000
    O689    O    0.42049   0.56783   0.48397   1.000
    O690    O    0.39198   0.53391   0.48651   1.000
    O691    O    0.86207   0.56786   0.48136   1.000
    O692    O    0.92049   0.56783   0.48397   1.000
    O693    O    0.89198   0.53391   0.48651   1.000
    O694    O    0.36208   0.06785   0.48136   1.000
    O695    O    0.42049   0.06782   0.48398   1.000
    O696    O    0.39198   0.03390   0.48651   1.000
    O697    O    0.86208   0.06785   0.48136   1.000
    O698    O    0.92049   0.06782   0.48398   1.000
    O699    O    0.89198   0.03390   0.48651   1.000
    O700    O    0.23190   0.07428   0.48291   1.000
    O701    O    0.30447   0.07155   0.48376   1.000
    O702    O    0.23189   0.57429   0.48336   1.000
    O703    O    0.30447   0.57156   0.48377   1.000
    O704    O    0.73190   0.07428   0.48291   1.000
    O705    O    0.80447   0.07155   0.48376   1.000
    O706    O    0.73189   0.57429   0.48336   1.000
    O707    O    0.80447   0.57156   0.48377   1.000
    O708    O    0.56084   0.08697   0.48730   1.000
    O709    O    0.58452   0.14389   0.49805   1.000
    O710    O    0.06084   0.08697   0.48730   1.000
    O711    O    0.08452   0.14389   0.49805   1.000
    O712    O    0.56084   0.58698   0.48733   1.000
    O713    O    0.58452   0.64390   0.49807   1.000
    O714    O    0.06084   0.58698   0.48733   1.000
    O715    O    0.08452   0.64390   0.49807   1.000
    O716    O    0.67623   0.06956   0.53144   1.000
    O717    O    0.17623   0.06956   0.53144   1.000
    O718    O    0.49072   0.56806   0.49188   1.000
    O719    O    0.54825   0.53737   0.53051   1.000
    O720    O    0.49072   0.06805   0.49188   1.000
    O721    O    0.54825   0.03737   0.53052   1.000
    O722    O    0.99072   0.56806   0.49188   1.000
    O723    O    0.04825   0.53737   0.53051   1.000
    O724    O    0.99072   0.06805   0.49188   1.000
    O725    O    0.04825   0.03737   0.53052   1.000
    O726    O    0.67623   0.56957   0.53189   1.000
    O727    O    0.17623   0.56956   0.53189   1.000
    O728    O    0.83449   0.10612   0.50193   1.000
    O729    O    0.33449   0.10612   0.50193   1.000
    O730    O    0.83449   0.60612   0.50194   1.000
    O731    O    0.33449   0.60612   0.50194   1.000
    O732    O    0.14211   0.71612   0.51344   1.000
    O733    O    0.64211   0.71612   0.51344   1.000
    O734    O    0.64211   0.21611   0.51350   1.000
    O735    O    0.14211   0.21611   0.51350   1.000
    O736    O    0.74078   0.68197   0.50809   1.000
    O737    O    0.67056   0.68220   0.51598   1.000
    O738    O    0.24078   0.18196   0.50809   1.000
    O739    O    0.17057   0.18218   0.51600   1.000
    O740    O    0.24078   0.68197   0.50809   1.000
    O741    O    0.17056   0.68220   0.51598   1.000
    O742    O    0.74078   0.18196   0.50809   1.000
    O743    O    0.67057   0.18218   0.51600   1.000
    O744    O    0.05453   0.67846   0.51625   1.000
    O745    O    0.11215   0.68217   0.51863   1.000
    O746    O    0.55453   0.67846   0.51625   1.000
    O747    O    0.61215   0.68217   0.51863   1.000
    O748    O    0.55453   0.17845   0.51626   1.000
    O749    O    0.61215   0.18215   0.51865   1.000
    O750    O    0.05453   0.17845   0.51626   1.000
    O751    O    0.11215   0.18215   0.51865   1.000
    O752    O    0.98194   0.67573   0.51666   1.000
    O753    O    0.92478   0.68036   0.55409   1.000
    O754    O    0.98195   0.17572   0.51666   1.000
    O755    O    0.92478   0.18034   0.55405   1.000
    O756    O    0.48195   0.17572   0.51666   1.000
    O757    O    0.42478   0.18034   0.55409   1.000
    O758    O    0.48194   0.67573   0.51666   1.000
    O759    O    0.42478   0.68036   0.55409   1.000
    O760    O    0.31087   0.16305   0.51267   1.000
    O761    O    0.29741   0.21379   0.55229   1.000
    O762    O    0.31087   0.66305   0.51267   1.000
    O763    O    0.29741   0.71381   0.55229   1.000
    O764    O    0.81087   0.16305   0.51267   1.000
    O765    O    0.79741   0.21379   0.55209   1.000
    O766    O    0.81087   0.66305   0.51267   1.000
    O767    O    0.79741   0.71381   0.55229   1.000
    O768    O    0.64439   0.70246   0.56423   1.000
    O769    O    0.14439   0.70247   0.56423   1.000
    O770    O    0.64439   0.20241   0.56430   1.000
    O771    O    0.14439   0.20241   0.56430   1.000
    O772    O    0.08993   0.52557   0.58653   1.000
    O773    O    0.58993   0.52557   0.58653   1.000
    O774    O    0.58993   0.02559   0.58655   1.000
    O775    O    0.08993   0.02559   0.58655   1.000
    O776    O    0.14183   0.04042   0.58788   1.000
    O777    O    0.14183   0.54042   0.58787   1.000
    O778    O    0.64183   0.04042   0.58788   1.000
    O779    O    0.64183   0.54042   0.58787   1.000
    O780    O    0.83797   0.22607   0.60779   1.000
    O781    O    0.83798   0.72610   0.60797   1.000
    O782    O    0.33798   0.72610   0.60797   1.000
    O783    O    0.33797   0.22606   0.60799   1.000
    O784    O    0.88929   0.20997   0.60979   1.000
    O785    O    0.88929   0.71000   0.60981   1.000
    O786    O    0.38929   0.71000   0.60981   1.000
    O787    O    0.38929   0.20997   0.60983   1.000
    O788    O    0.61940   0.52197   0.63647   1.000
    O789    O    0.11940   0.52197   0.63647   1.000
    O790    O    0.11939   0.02201   0.63650   1.000
    O791    O    0.61939   0.02201   0.63650   1.000
    O792    O    0.66715   0.71943   0.60763   1.000
    O793    O    0.62410   0.71913   0.60928   1.000
    O794    O    0.64640   0.68902   0.61518   1.000
    O795    O    0.16715   0.71943   0.60763   1.000
    O796    O    0.12410   0.71913   0.60928   1.000
    O797    O    0.14640   0.68902   0.61518   1.000
    O798    O    0.66716   0.21934   0.60771   1.000
    O799    O    0.62411   0.21905   0.60937   1.000
    O800    O    0.64641   0.18893   0.61523   1.000
    O801    O    0.16716   0.21934   0.60771   1.000
    O802    O    0.12411   0.21905   0.60937   1.000
    O803    O    0.14641   0.18893   0.61523   1.000
    O804    O    0.86721   0.72919   0.65813   1.000
    O805    O    0.36721   0.72919   0.65813   1.000
    O806    O    0.36719   0.22913   0.65816   1.000
    O807    O    0.86720   0.22913   0.65816   1.000
    O808    O    0.09525   0.50276   0.68838   1.000
    O809    O    0.15049   0.51858   0.68956   1.000
    O810    O    0.59525   0.50276   0.68838   1.000
    O811    O    0.65049   0.51858   0.68956   1.000
    O812    O    0.59521   0.00288   0.68844   1.000
    O813    O    0.65050   0.01858   0.68957   1.000
    O814    O    0.09520   0.00288   0.68844   1.000
    O815    O    0.15050   0.01858   0.68957   1.000
    O816    O    0.04655   0.48812   0.69087   1.000
    O817    O    0.54655   0.48812   0.69087   1.000
    O818    O    0.04646   0.98836   0.69097   1.000
    O819    O    0.54646   0.98836   0.69097   1.000
    O820    O    0.19962   0.03181   0.69405   1.000
    O821    O    0.69962   0.03181   0.69405   1.000
    O822    O    0.19956   0.53192   0.69407   1.000
    O823    O    0.69956   0.53191   0.69408   1.000
    O824    O    0.34308   0.74866   0.70993   1.000
    O825    O    0.39822   0.73269   0.71125   1.000
    O826    O    0.84308   0.74866   0.70993   1.000
    O827    O    0.89821   0.73269   0.71125   1.000
    O828    O    0.34304   0.24855   0.70998   1.000
    O829    O    0.39820   0.23262   0.71128   1.000
    O830    O    0.84305   0.24856   0.70998   1.000
    O831    O    0.89820   0.23262   0.71128   1.000
    O832    O    0.29448   0.76354   0.71235   1.000
    O833    O    0.79448   0.76354   0.71235   1.000
    O834    O    0.79443   0.26340   0.71240   1.000
    O835    O    0.29443   0.26339   0.71240   1.000
    O836    O    0.44720   0.71923   0.71587   1.000
    O837    O    0.94720   0.71923   0.71587   1.000
    O838    O    0.94719   0.21919   0.71589   1.000
    O839    O    0.44719   0.21919   0.71589   1.000
    O840    O    0.07089   0.48467   0.73794   1.000
    O841    O    0.57089   0.48467   0.73794   1.000
    O842    O    0.07082   0.98487   0.73803   1.000
    O843    O    0.57082   0.98487   0.73803   1.000
    O844    O    0.18138   0.01631   0.74031   1.000
    O845    O    0.68138   0.01631   0.74031   1.000
    O846    O    0.68134   0.51635   0.74032   1.000
    O847    O    0.18134   0.51635   0.74032   1.000
    O848    O    0.81867   0.76678   0.75947   1.000
    O849    O    0.31867   0.76678   0.75947   1.000
    O850    O    0.31863   0.26665   0.75952   1.000
    O851    O    0.81863   0.26666   0.75952   1.000
    O852    O    0.42898   0.73487   0.76209   1.000
    O853    O    0.92898   0.73487   0.76209   1.000
    O854    O    0.42896   0.23482   0.76211   1.000
    O855    O    0.92896   0.23482   0.76211   1.000
    O856    O    0.05274   0.46902   0.78415   1.000
    O857    O    0.10178   0.48238   0.78865   1.000
    O858    O    0.55274   0.46902   0.78415   1.000
    O859    O    0.60178   0.48238   0.78865   1.000
    O860    O    0.55265   0.96928   0.78429   1.000
    O861    O    0.60174   0.98254   0.78875   1.000
    O862    O    0.05265   0.96928   0.78429   1.000
    O863    O    0.10174   0.98254   0.78875   1.000
    O864    O    0.20572   0.01293   0.78729   1.000
    O865    O    0.15700   0.99827   0.78990   1.000
    O866    O    0.70572   0.01293   0.78729   1.000
    O867    O    0.65700   0.99827   0.78990   1.000
    O868    O    0.20566   0.51301   0.78736   1.000
    O869    O    0.15700   0.49824   0.78985   1.000
    O870    O    0.70566   0.51301   0.78736   1.000
    O871    O    0.65700   0.49824   0.78985   1.000
    O872    O    0.30038   0.78233   0.80569   1.000
    O873    O    0.34939   0.76889   0.81032   1.000
    O874    O    0.80038   0.78233   0.80569   1.000
    O875    O    0.84939   0.76889   0.81032   1.000
    O876    O    0.30033   0.28219   0.80574   1.000
    O877    O    0.34935   0.26879   0.81036   1.000
    O878    O    0.80034   0.28220   0.80571   1.000
    O879    O    0.84936   0.26879   0.81036   1.000
    O880    O    0.45319   0.73824   0.80924   1.000
    O881    O    0.40455   0.75295   0.81162   1.000
    O882    O    0.95319   0.73824   0.80924   1.000
    O883    O    0.90456   0.75295   0.81162   1.000
    O884    O    0.45319   0.23820   0.80926   1.000
    O885    O    0.40454   0.25289   0.81165   1.000
    O886    O    0.95319   0.23820   0.80926   1.000
    O887    O    0.90454   0.25289   0.81165   1.000
    O888    O    0.13287   0.47884   0.84170   1.000
    O889    O    0.63287   0.47884   0.84170   1.000
    O890    O    0.63286   0.97893   0.84178   1.000
    O891    O    0.13286   0.97893   0.84178   1.000
    O892    O    0.88037   0.77214   0.86348   1.000
    O893    O    0.38037   0.77214   0.86348   1.000
    O894    O    0.88035   0.27208   0.86354   1.000
    O895    O    0.38035   0.27208   0.86354   1.000
    O896    O    0.85284   0.93876   0.88582   1.000
    O897    O    0.35284   0.93876   0.88579   1.000
    O898    O    0.85285   0.43878   0.88580   1.000
    O899    O    0.35285   0.43878   0.88583   1.000
    O900    O    0.11075   0.45980   0.89010   1.000
    O901    O    0.16220   0.47566   0.89184   1.000
    O902    O    0.61075   0.45980   0.89010   1.000
    O903    O    0.66220   0.47566   0.89184   1.000
    O904    O    0.11075   0.95985   0.89014   1.000
    O905    O    0.16217   0.97578   0.89187   1.000
    O906    O    0.61075   0.95985   0.89014   1.000
    O907    O    0.66217   0.97578   0.89187   1.000
    O908    O    0.37550   0.46879   0.89133   1.000
    O909    O    0.37549   0.96877   0.89130   1.000
    O910    O    0.87549   0.96877   0.89133   1.000
    O911    O    0.87550   0.46879   0.89133   1.000
    O912    O    0.33247   0.96934   0.89330   1.000
    O913    O    0.83247   0.96934   0.89332   1.000
    O914    O    0.33247   0.46935   0.89334   1.000
    O915    O    0.83248   0.46935   0.89331   1.000
    O916    O    0.35793   0.79055   0.91212   1.000
    O917    O    0.40974   0.77557   0.91349   1.000
    O918    O    0.85793   0.79055   0.91212   1.000
    O919    O    0.90974   0.77557   0.91349   1.000
    O920    O    0.35793   0.29052   0.91216   1.000
    O921    O    0.40974   0.27554   0.91354   1.000
    O922    O    0.85793   0.29053   0.91216   1.000
    O923    O    0.90974   0.27555   0.91354   1.000
    O924    O    0.35541   0.95245   0.93665   1.000
    O925    O    0.85542   0.45246   0.93665   1.000
    O926    O    0.85542   0.95245   0.93667   1.000
    O927    O    0.35542   0.45245   0.93668   1.000
    O928    O    0.07521   0.43030   0.94588   1.000
    O929    O    0.57521   0.43030   0.94588   1.000
    O930    O    0.07522   0.93032   0.94590   1.000
    O931    O    0.57522   0.93032   0.94590   1.000
    O932    O    0.20275   0.46353   0.94763   1.000
    O933    O    0.70275   0.46353   0.94763   1.000
    O934    O    0.20272   0.96361   0.94764   1.000
    O935    O    0.70272   0.96361   0.94764   1.000
    O936    O    0.88791   0.93228   0.98204   1.000
    O937    O    0.82954   0.93248   0.98539   1.000
    O938    O    0.38791   0.93228   0.98200   1.000
    O939    O    0.32954   0.93248   0.98539   1.000
    O940    O    0.88792   0.43227   0.98205   1.000
    O941    O    0.82955   0.43248   0.98540   1.000
    O942    O    0.38792   0.43227   0.98205   1.000
    O943    O    0.32955   0.43248   0.98540   1.000
    O944    O    0.51808   0.92572   0.98339   1.000
    O945    O    0.44553   0.92849   0.98395   1.000
    O946    O    0.01808   0.92572   0.98339   1.000
    O947    O    0.94553   0.92849   0.98400   1.000
    O948    O    0.51809   0.42571   0.98339   1.000
    O949    O    0.44553   0.42849   0.98401   1.000
    O950    O    0.01809   0.42571   0.98339   1.000
    O951    O    0.94554   0.42849   0.98401   1.000
    O952    O    0.68917   0.91304   0.98734   1.000
    O953    O    0.18917   0.91304   0.98734   1.000
    O954    O    0.68918   0.41302   0.98736   1.000
    O955    O    0.18918   0.41302   0.98736   1.000
    O956    O    0.75932   0.93217   0.99283   1.000
    O957    O    0.25932   0.93217   0.99283   1.000
    O958    O    0.25933   0.43216   0.99284   1.000
    O959    O    0.75933   0.43216   0.99284   1.000
    O960    O    0.36309   0.35435   0.01273   1.000
    O961    O    0.36309   0.85436   0.01273   1.000
    O962    O    0.86309   0.35435   0.01273   1.000
    O963    O    0.86309   0.85436   0.01273   1.000
    O964    O    0.30823   0.37801   0.00401   1.000
    O965    O    0.30822   0.87802   0.00400   1.000
    O966    O    0.80823   0.37801   0.00401   1.000
    O967    O    0.80822   0.87802   0.00400   1.000
    O968    O    0.38693   0.14569   0.51263   1.000
    O969    O    0.38692   0.64569   0.51263   1.000
    O970    O    0.88693   0.14569   0.51263   1.000
    O971    O    0.88692   0.64569   0.51263   1.000
    O972    O    0.44181   0.12224   0.50303   1.000
    O973    O    0.44181   0.62225   0.50303   1.000
    O974    O    0.94181   0.12224   0.50303   1.000
    O975    O    0.94181   0.62225   0.50303   1.000
    O976    O    0.13692   0.10432   0.48690   1.000
    O977    O    0.13692   0.60433   0.48737   1.000
    O978    O    0.63692   0.10432   0.48690   1.000
    O979    O    0.63692   0.60433   0.48737   1.000
    O980    O    0.19183   0.12776   0.49650   1.000
    O981    O    0.19182   0.62777   0.49695   1.000
    O982    O    0.69183   0.12776   0.49650   1.000
    O983    O    0.69182   0.62777   0.49695   1.000
    O984    O    0.11309   0.39566   0.98735   1.000
    O985    O    0.11309   0.89567   0.98734   1.000
    O986    O    0.61309   0.39566   0.98735   1.000
    O987    O    0.61309   0.89567   0.98734   1.000
    O988    O    0.05818   0.37220   0.99684   1.000
    O989    O    0.05817   0.87221   0.99684   1.000
    O990    O    0.55818   0.37220   0.99684   1.000
    O991    O    0.55817   0.87221   0.99684   1.000
loop_
    _geom_bond_atom_site_label_1
    _geom_bond_atom_site_label_2
    _geom_bond_distance
    _geom_bond_site_symmetry_2
    _ccdc_geom_bond_type
    C51    O448      0.54898  1_554   S
    C199   O448      0.54898      .   S
    C50    O449      0.54887  1_554   S
    C198   O449      0.54887      .   S
    C49    O450      0.54898  1_554   S
    C197   O450      0.54898      .   S
    C48    O451      0.54887  1_554   S
    C196   O451      0.54887      .   S
    C446   O452      0.96545      .   S
    C0     O452      0.96545      .   S
    C446   O453      0.71306      .   S
    C330   O453      0.71306      .   S
    C444   O454      0.96545      .   S
    C2     O454      0.96545  1_655   S
    C444   O455      0.71305      .   S
    C328   O455      0.71305      .   S
    C447   O456      0.96547      .   S
    C1     O456      0.96547      .   S
    C447   O457      0.71305      .   S
    C331   O457      0.71305      .   S
    C445   O458      0.96547      .   S
    C3     O458      0.96547  1_655   S
    C445   O459      0.71304      .   S
    C329   O459      0.71304      .   S
    C327   O460      0.62857      .   S
    C443   O460      0.62857      .   S
    C327   O461      0.76498      .   S
    C331   O461      0.76498      .   S
    C327   O462      0.64191  1_554   S
    C439   O462      0.64191      .   S
    C325   O463      0.62857      .   S
    C441   O463      0.62857      .   S
    C325   O464      0.76499      .   S
    C329   O464      0.76499      .   S
    C325   O465      0.64191  1_554   S
    C437   O465      0.64191      .   S
    C326   O466      0.62842      .   S
    C442   O466      0.62842      .   S
    C326   O467      0.76481      .   S
    C330   O467      0.76481      .   S
    C326   O468      0.64218  1_554   S
    C438   O468      0.64218      .   S
    C324   O469      0.62841      .   S
    C440   O469      0.62841      .   S
    C324   O470      0.76482      .   S
    C328   O470      0.76482      .   S
    C324   O471      0.64218  1_554   S
    C436   O471      0.64218      .   S
    C1     O472      1.01354      .   S
    C353   O472      1.01354      .   S
    C1     O473      0.97901      .   S
    C373   O473      0.97901      .   S
    C1     O474      0.98330  1_554   S
    C341   O474      0.98330      .   S
    C0     O475      1.01351      .   S
    C352   O475      1.01351      .   S
    C0     O476      0.97899      .   S
    C372   O476      0.97899      .   S
    C0     O477      0.98328  1_554   S
    C340   O477      0.98328      .   S
    C2     O478      1.01351      .   S
    C354   O478      1.01351      .   S
    C2     O479      0.97898      .   S
    C374   O479      0.97898      .   S
    C2     O480      0.98328  1_554   S
    C342   O480      0.98328      .   S
    C3     O481      1.01354      .   S
    C355   O481      1.01354      .   S
    C3     O482      0.97901      .   S
    C375   O482      0.97901      .   S
    C3     O483      0.98330  1_554   S
    C343   O483      0.98330      .   S
    C5     O484      1.02426      .   S
    C441   O484      1.02426      .   S
    C5     O485      1.01182      .   S
    C377   O485      1.01182      .   S
    C5     O486      1.00676  1_554   S
    C337   O486      1.00676      .   S
    C7     O487      1.02426      .   S
    C443   O487      1.02426      .   S
    C7     O488      1.01183      .   S
    C379   O488      1.01183      .   S
    C7     O489      1.00677  1_554   S
    C339   O489      1.00677      .   S
    C6     O490      1.02426      .   S
    C442   O490      1.02426      .   S
    C6     O491      1.01182      .   S
    C378   O491      1.01182      .   S
    C6     O492      1.00670  1_554   S
    C338   O492      1.00670      .   S
    C4     O493      1.02427      .   S
    C440   O493      1.02427      .   S
    C4     O494      1.01182      .   S
    C376   O494      1.01182      .   S
    C4     O495      1.00670  1_554   S
    C336   O495      1.00670      .   S
    C352   O496      0.64214      .   S
    C192   O496      0.64214  1_556   S
    C353   O497      0.64250      .   S
    C193   O497      0.64250  1_556   S
    C354   O498      0.64214      .   S
    C194   O498      0.64214  1_556   S
    C355   O499      0.64215      .   S
    C195   O499      0.64215  1_556   S
    C330   O500      0.76658      .   S
    C334   O500      0.76658      .   S
    C330   O501      0.55281      .   S
    C146   O501      0.55281  1_556   S
    C328   O502      0.76658      .   S
    C332   O502      0.76658      .   S
    C328   O503      0.55281      .   S
    C144   O503      0.55281  1_556   S
    C329   O504      0.76665      .   S
    C333   O504      0.76665      .   S
    C329   O505      0.55282      .   S
    C145   O505      0.55282      .   S
    C331   O506      0.76665      .   S
    C335   O506      0.76665      .   S
    C331   O507      0.55282      .   S
    C147   O507      0.55282      .   S
    C427   O508      0.64116      .   S
    C295   O508      0.64116      .   S
    C427   O509      0.98333      .   S
    C27    O509      0.98333  1_556   S
    C426   O510      0.64116      .   S
    C294   O510      0.64116      .   S
    C426   O511      0.98337      .   S
    C26    O511      0.98337  1_556   S
    C425   O512      0.64116      .   S
    C293   O512      0.64116      .   S
    C425   O513      0.98333      .   S
    C25    O513      0.98333  1_556   S
    C424   O514      0.64116      .   S
    C292   O514      0.64116      .   S
    C424   O515      0.98336      .   S
    C24    O515      0.98336  1_556   S
    C422   O516      0.63605      .   S
    C294   O516      0.63605      .   S
    C422   O517      1.00552      .   S
    C30    O517      1.00552  1_556   S
    C420   O518      0.63567      .   S
    C292   O518      0.63567      .   S
    C420   O519      1.00630      .   S
    C28    O519      1.00630  1_556   S
    C421   O520      0.63566      .   S
    C293   O520      0.63566      .   S
    C421   O521      1.00628      .   S
    C29    O521      1.00628  1_556   S
    C423   O522      0.63566      .   S
    C295   O522      0.63566      .   S
    C423   O523      1.00628      .   S
    C31    O523      1.00628  1_556   S
    C375   O524      0.64327      .   S
    C235   O524      0.64327      .   S
    C374   O525      0.64333      .   S
    C234   O525      0.64333      .   S
    C373   O526      0.64328      .   S
    C233   O526      0.64328      .   S
    C372   O527      0.64332      .   S
    C232   O527      0.64332      .   S
    C378   O528      0.63395      .   S
    C234   O528      0.63395      .   S
    C376   O529      0.63395      .   S
    C232   O529      0.63395      .   S
    C377   O530      0.63392      .   S
    C233   O530      0.63392      .   S
    C379   O531      0.63391      .   S
    C235   O531      0.63391      .   S
    C292   O532      0.74854      .   S
    C296   O532      0.74854      .   S
    C293   O533      0.74864      .   S
    C297   O533      0.74864      .   S
    C294   O534      0.74854      .   S
    C298   O534      0.74854      .   S
    C295   O535      0.74864      .   S
    C299   O535      0.74864      .   S
    C332   O536      0.54873      .   S
    C148   O536      0.54873      .   S
    C332   O537      0.54872      .   S
    C152   O537      0.54872      .   S
    C332   O538      0.54957      .   S
    C156   O538      0.54957      .   S
    C334   O539      0.54872      .   S
    C150   O539      0.54872      .   S
    C334   O540      0.54872      .   S
    C154   O540      0.54872      .   S
    C334   O541      0.54958      .   S
    C158   O541      0.54958      .   S
    C333   O542      0.54871      .   S
    C149   O542      0.54871      .   S
    C333   O543      0.54872      .   S
    C153   O543      0.54872      .   S
    C333   O544      0.54954      .   S
    C157   O544      0.54954      .   S
    C335   O545      0.54871      .   S
    C151   O545      0.54871      .   S
    C335   O546      0.54871      .   S
    C155   O546      0.54871      .   S
    C335   O547      0.54955      .   S
    C159   O547      0.54955      .   S
    C233   O548      0.74876      .   S
    C229   O548      0.74876      .   S
    C235   O549      0.74876      .   S
    C231   O549      0.74876      .   S
    C232   O550      0.74866      .   S
    C228   O550      0.74866      .   S
    C234   O551      0.74865      .   S
    C230   O551      0.74865      .   S
    C298   O552      0.70170      .   S
    C303   O552      0.70170      .   S
    C298   O553      0.70168      .   S
    C306   O553      0.70168      .   S
    C296   O554      0.70170      .   S
    C301   O554      0.70170      .   S
    C296   O555      0.70168      .   S
    C304   O555      0.70168      .   S
    C299   O556      0.70166      .   S
    C302   O556      0.70166  1_545   S
    C299   O557      0.70168      .   S
    C307   O557      0.70168      .   S
    C297   O558      0.70166      .   S
    C300   O558      0.70166  1_545   S
    C297   O559      0.70167      .   S
    C305   O559      0.70167      .   S
    C131   O560      0.54440      .   S
    C303   O560      0.54440      .   S
    C129   O561      0.54440      .   S
    C301   O561      0.54440      .   S
    C130   O562      0.54436      .   S
    C302   O562      0.54436      .   S
    C128   O563      0.54436      .   S
    C300   O563      0.54436      .   S
    C135   O564      0.54442      .   S
    C307   O564      0.54442      .   S
    C133   O565      0.54442      .   S
    C305   O565      0.54442      .   S
    C134   O566      0.54445      .   S
    C306   O566      0.54445      .   S
    C132   O567      0.54444      .   S
    C304   O567      0.54444      .   S
    C228   O568      0.70159      .   S
    C224   O568      0.70159      .   S
    C228   O569      0.70179      .   S
    C220   O569      0.70179      .   S
    C229   O570      0.70158      .   S
    C225   O570      0.70158      .   S
    C229   O571      0.70174      .   S
    C221   O571      0.70174      .   S
    C231   O572      0.70158      .   S
    C227   O572      0.70158      .   S
    C231   O573      0.70175      .   S
    C223   O573      0.70175      .   S
    C230   O574      0.70159      .   S
    C226   O574      0.70159      .   S
    C230   O575      0.70179      .   S
    C222   O575      0.70179      .   S
    C79    O576      0.54424      .   S
    C227   O576      0.54424      .   S
    C77    O577      0.54423      .   S
    C225   O577      0.54423      .   S
    C78    O578      0.54422      .   S
    C226   O578      0.54422      .   S
    C76    O579      0.54421      .   S
    C224   O579      0.54421      .   S
    C74    O580      0.54446      .   S
    C222   O580      0.54446      .   S
    C72    O581      0.54446      .   S
    C220   O581      0.54446      .   S
    C75    O582      0.54445      .   S
    C223   O582      0.54445      .   S
    C73    O583      0.54445      .   S
    C221   O583      0.54445      .   S
    C301   O584      0.69530      .   S
    C309   O584      0.69530      .   S
    C303   O585      0.69530      .   S
    C311   O585      0.69530      .   S
    C300   O586      0.69529      .   S
    C308   O586      0.69529      .   S
    C302   O587      0.69529      .   S
    C310   O587      0.69529      .   S
    C307   O588      0.69531      .   S
    C315   O588      0.69531      .   S
    C305   O589      0.69531      .   S
    C313   O589      0.69531      .   S
    C306   O590      0.69531      .   S
    C314   O590      0.69531      .   S
    C304   O591      0.69532      .   S
    C312   O591      0.69532      .   S
    C225   O592      0.69527      .   S
    C217   O592      0.69527      .   S
    C227   O593      0.69526      .   S
    C219   O593      0.69526      .   S
    C226   O594      0.69527      .   S
    C218   O594      0.69527      .   S
    C224   O595      0.69526      .   S
    C216   O595      0.69526      .   S
    C223   O596      0.69535      .   S
    C215   O596      0.69535      .   S
    C222   O597      0.69526      .   S
    C214   O597      0.69526      .   S
    C221   O598      0.69535      .   S
    C213   O598      0.69535      .   S
    C220   O599      0.69526      .   S
    C212   O599      0.69526      .   S
    C311   O600      0.54440      .   S
    C139   O600      0.54440      .   S
    C311   O601      0.70171      .   S
    C319   O601      0.70171      .   S
    C309   O602      0.54440      .   S
    C137   O602      0.54440      .   S
    C309   O603      0.70172      .   S
    C317   O603      0.70172      .   S
    C308   O604      0.54443      .   S
    C136   O604      0.54443      .   S
    C308   O605      0.70177      .   S
    C316   O605      0.70177      .   S
    C310   O606      0.54443      .   S
    C138   O606      0.54443      .   S
    C310   O607      0.70177      .   S
    C318   O607      0.70177      .   S
    C313   O608      0.54420      .   S
    C141   O608      0.54420      .   S
    C313   O609      0.70154  1_565   S
    C316   O609      0.70154      .   S
    C315   O610      0.54420      .   S
    C143   O610      0.54420      .   S
    C315   O611      0.70154  1_565   S
    C318   O611      0.70154      .   S
    C314   O612      0.54423      .   S
    C142   O612      0.54423      .   S
    C314   O613      0.70153      .   S
    C319   O613      0.70153      .   S
    C312   O614      0.54423      .   S
    C140   O614      0.54423      .   S
    C312   O615      0.70153      .   S
    C317   O615      0.70153      .   S
    C219   O616      0.54443      .   S
    C71    O616      0.54443      .   S
    C219   O617      0.70172      .   S
    C211   O617      0.70172      .   S
    C217   O618      0.54444      .   S
    C69    O618      0.54444      .   S
    C217   O619      0.70172      .   S
    C209   O619      0.70172      .   S
    C216   O620      0.54445      .   S
    C68    O620      0.54445      .   S
    C216   O621      0.70172      .   S
    C208   O621      0.70172      .   S
    C218   O622      0.54445      .   S
    C70    O622      0.54445      .   S
    C218   O623      0.70172      .   S
    C210   O623      0.70172      .   S
    C214   O624      0.54437      .   S
    C66    O624      0.54437      .   S
    C214   O625      0.70170      .   S
    C210   O625      0.70170      .   S
    C212   O626      0.54437      .   S
    C64    O626      0.54437      .   S
    C212   O627      0.70170      .   S
    C208   O627      0.70170      .   S
    C215   O628      0.54435      .   S
    C67    O628      0.54435      .   S
    C215   O629      0.70170      .   S
    C211   O629      0.70170      .   S
    C213   O630      0.54435      .   S
    C65    O630      0.54435      .   S
    C213   O631      0.70168      .   S
    C209   O631      0.70168      .   S
    C319   O632      0.74868      .   S
    C323   O632      0.74868      .   S
    C317   O633      0.74867      .   S
    C321   O633      0.74867      .   S
    C316   O634      0.74860      .   S
    C320   O634      0.74860      .   S
    C318   O635      0.74860      .   S
    C322   O635      0.74860      .   S
    C208   O636      0.74861      .   S
    C204   O636      0.74861      .   S
    C211   O637      0.74861      .   S
    C207   O637      0.74861      .   S
    C210   O638      0.74861      .   S
    C206   O638      0.74861      .   S
    C209   O639      0.74861      .   S
    C205   O639      0.74861      .   S
    C95    O640      0.54955      .   S
    C247   O640      0.54955      .   S
    C94    O641      0.54956      .   S
    C246   O641      0.54956      .   S
    C93    O642      0.54954      .   S
    C245   O642      0.54954      .   S
    C92    O643      0.54960      .   S
    C244   O643      0.54960      .   S
    C323   O644      0.63396      .   S
    C435   O644      0.63396      .   S
    C323   O645      0.64322      .   S
    C431   O645      0.64322      .   S
    C322   O646      0.63396      .   S
    C434   O646      0.63396      .   S
    C322   O647      0.64325      .   S
    C430   O647      0.64325      .   S
    C321   O648      0.63396      .   S
    C433   O648      0.63396      .   S
    C321   O649      0.64323      .   S
    C429   O649      0.64323      .   S
    C320   O650      0.63396      .   S
    C432   O650      0.63396      .   S
    C320   O651      0.64326      .   S
    C428   O651      0.64326      .   S
    C88    O652      0.54875      .   S
    C244   O652      0.54875      .   S
    C90    O653      0.54872      .   S
    C246   O653      0.54872      .   S
    C89    O654      0.54872      .   S
    C245   O654      0.54872      .   S
    C91    O655      0.54872      .   S
    C247   O655      0.54872      .   S
    C84    O656      0.54873      .   S
    C244   O656      0.54873      .   S
    C86    O657      0.54870      .   S
    C246   O657      0.54870      .   S
    C85    O658      0.54870      .   S
    C245   O658      0.54870      .   S
    C87    O659      0.54870      .   S
    C247   O659      0.54870      .   S
    C246   O660      0.76673      .   S
    C242   O660      0.76673      .   S
    C247   O661      0.76655      .   S
    C243   O661      0.76655      .   S
    C244   O662      0.76662      .   S
    C240   O662      0.76662      .   S
    C245   O663      0.76655      .   S
    C241   O663      0.76655      .   S
    C207   O664      0.63566      .   S
    C367   O664      0.63566      .   S
    C207   O665      0.64132      .   S
    C371   O665      0.64132      .   S
    C206   O666      0.63568      .   S
    C366   O666      0.63568      .   S
    C206   O667      0.64133      .   S
    C370   O667      0.64133      .   S
    C205   O668      0.63567      .   S
    C365   O668      0.63567      .   S
    C205   O669      0.64133      .   S
    C369   O669      0.64133      .   S
    C204   O670      0.63567      .   S
    C364   O670      0.63567      .   S
    C204   O671      0.64133      .   S
    C368   O671      0.64133      .   S
    C435   O672      1.01151      .   S
    C23    O672      1.01151      .   S
    C434   O673      1.00373      .   S
    C22    O673      1.00373      .   S
    C433   O674      1.01151      .   S
    C21    O674      1.01151      .   S
    C432   O675      1.00373      .   S
    C20    O675      1.00373      .   S
    C431   O676      0.97889      .   S
    C19    O676      0.97889      .   S
    C429   O677      0.97889      .   S
    C17    O677      0.97889      .   S
    C430   O678      0.97884      .   S
    C18    O678      0.97884      .   S
    C428   O679      0.97883      .   S
    C16    O679      0.97883      .   S
    C364   O680      1.00672      .   S
    C12    O680      1.00672      .   S
    C367   O681      1.00671      .   S
    C15    O681      1.00671      .   S
    C366   O682      1.00671      .   S
    C14    O682      1.00671      .   S
    C365   O683      1.00671      .   S
    C13    O683      1.00671      .   S
    C370   O684      0.98323      .   S
    C10    O684      0.98323      .   S
    C368   O685      0.98323      .   S
    C8     O685      0.98323      .   S
    C369   O686      0.98322      .   S
    C9     O686      0.98322      .   S
    C371   O687      0.98323      .   S
    C11    O687      0.98323      .   S
    C241   O688      0.76481      .   S
    C237   O688      0.76481      .   S
    C241   O689      0.71308      .   S
    C389   O689      0.71308      .   S
    C241   O690      0.55287      .   S
    C81    O690      0.55287      .   S
    C243   O691      0.76481      .   S
    C239   O691      0.76481      .   S
    C243   O692      0.71308      .   S
    C391   O692      0.71308      .   S
    C243   O693      0.55287      .   S
    C83    O693      0.55287      .   S
    C240   O694      0.76476      .   S
    C236   O694      0.76476      .   S
    C240   O695      0.71301      .   S
    C388   O695      0.71301      .   S
    C240   O696      0.55281      .   S
    C80    O696      0.55281      .   S
    C242   O697      0.76476      .   S
    C238   O697      0.76476      .   S
    C242   O698      0.71300      .   S
    C390   O698      0.71300      .   S
    C242   O699      0.55282      .   S
    C82    O699      0.55282      .   S
    C384   O700      1.02322      .   S
    C20    O700      1.02322      .   S
    C384   O701      0.62840      .   S
    C236   O701      0.62840      .   S
    C385   O702      1.02417      .   S
    C21    O702      1.02417      .   S
    C385   O703      0.62841      .   S
    C237   O703      0.62841      .   S
    C386   O704      1.02322      .   S
    C22    O704      1.02322      .   S
    C386   O705      0.62839      .   S
    C238   O705      0.62839      .   S
    C387   O706      1.02417      .   S
    C23    O706      1.02417      .   S
    C387   O707      0.62841      .   S
    C239   O707      0.62841      .   S
    C410   O708      1.01382      .   S
    C18    O708      1.01382      .   S
    C410   O709      0.64242      .   S
    C282   O709      0.64242      .   S
    C408   O710      1.01382      .   S
    C16    O710      1.01382      .   S
    C408   O711      0.64242      .   S
    C280   O711      0.64242      .   S
    C411   O712      1.01380      .   S
    C19    O712      1.01380      .   S
    C411   O713      0.64223      .   S
    C283   O713      0.64223      .   S
    C409   O714      1.01380      .   S
    C17    O714      1.01380      .   S
    C409   O715      0.64223      .   S
    C281   O715      0.64223      .   S
    C22    O716      1.01468      .   S
    C394   O716      1.01468      .   S
    C20    O717      1.01468      .   S
    C392   O717      1.01468      .   S
    C19    O718      0.96561      .   S
    C389   O718      0.96561      .   S
    C19    O719      0.98323      .   S
    C399   O719      0.98323      .   S
    C18    O720      0.96560      .   S
    C388   O720      0.96560      .   S
    C18    O721      0.98323      .   S
    C398   O721      0.98323      .   S
    C17    O722      0.96561  1_455   S
    C391   O722      0.96561      .   S
    C17    O723      0.98323      .   S
    C397   O723      0.98323      .   S
    C16    O724      0.96560  1_455   S
    C390   O724      0.96560      .   S
    C16    O725      0.98323      .   S
    C396   O725      0.98323      .   S
    C23    O726      1.00681      .   S
    C395   O726      1.00681      .   S
    C21    O727      1.00682      .   S
    C393   O727      1.00682      .   S
    C238   O728      0.64224      .   S
    C382   O728      0.64224      .   S
    C236   O729      0.64224      .   S
    C380   O729      0.64224      .   S
    C239   O730      0.64220      .   S
    C383   O730      0.64220      .   S
    C237   O731      0.64220      .   S
    C381   O731      0.64220      .   S
    C113   O732      0.55282      .   S
    C285   O732      0.55282      .   S
    C115   O733      0.55282      .   S
    C287   O733      0.55282      .   S
    C114   O734      0.55285      .   S
    C286   O734      0.55285      .   S
    C112   O735      0.55285      .   S
    C284   O735      0.55285      .   S
    C419   O736      0.96542      .   S
    C11    O736      0.96542      .   S
    C419   O737      0.71306      .   S
    C287   O737      0.71306      .   S
    C416   O738      0.96543      .   S
    C8     O738      0.96543      .   S
    C416   O739      0.71306      .   S
    C284   O739      0.71306      .   S
    C417   O740      0.96543      .   S
    C9     O740      0.96543      .   S
    C417   O741      0.71305      .   S
    C285   O741      0.71305      .   S
    C418   O742      0.96543      .   S
    C10    O742      0.96543      .   S
    C418   O743      0.71306      .   S
    C286   O743      0.71306      .   S
    C281   O744      0.62842      .   S
    C413   O744      0.62842      .   S
    C281   O745      0.76481      .   S
    C285   O745      0.76481      .   S
    C283   O746      0.62842      .   S
    C415   O746      0.62842      .   S
    C283   O747      0.76481      .   S
    C287   O747      0.76481      .   S
    C282   O748      0.62840      .   S
    C414   O748      0.62840      .   S
    C282   O749      0.76481      .   S
    C286   O749      0.76481      .   S
    C280   O750      0.62840      .   S
    C412   O750      0.62840      .   S
    C280   O751      0.76481      .   S
    C284   O751      0.76481      .   S
    C15    O752      1.02429      .   S
    C413   O752      1.02429  1_455   S
    C15    O753      1.01175      .   S
    C351   O753      1.01175      .   S
    C14    O754      1.02429      .   S
    C412   O754      1.02429  1_455   S
    C14    O755      1.01110      .   S
    C350   O755      1.01110      .   S
    C12    O756      1.02429      .   S
    C414   O756      1.02429      .   S
    C12    O757      1.01179      .   S
    C348   O757      1.01179      .   S
    C13    O758      1.02429      .   S
    C415   O758      1.02429      .   S
    C13    O759      1.01175      .   S
    C349   O759      1.01175      .   S
    C8     O760      1.01394      .   S
    C380   O760      1.01394      .   S
    C8     O761      0.97902      .   S
    C344   O761      0.97902      .   S
    C9     O762      1.01394      .   S
    C381   O762      1.01394      .   S
    C9     O763      0.97902      .   S
    C345   O763      0.97902      .   S
    C10    O764      1.01394      .   S
    C382   O764      1.01394      .   S
    C10    O765      0.97561      .   S
    C346   O765      0.97561      .   S
    C11    O766      1.01394      .   S
    C383   O766      1.01394      .   S
    C11    O767      0.97902      .   S
    C347   O767      0.97902      .   S
    C287   O768      0.76611      .   S
    C291   O768      0.76611      .   S
    C285   O769      0.76611      .   S
    C289   O769      0.76611      .   S
    C286   O770      0.76658      .   S
    C290   O770      0.76658      .   S
    C284   O771      0.76658      .   S
    C288   O771      0.76658      .   S
    C397   O772      0.64136      .   S
    C249   O772      0.64136      .   S
    C399   O773      0.64136      .   S
    C251   O773      0.64136      .   S
    C398   O774      0.64138      .   S
    C250   O774      0.64138      .   S
    C396   O775      0.64139      .   S
    C248   O775      0.64139      .   S
    C392   O776      0.63572      .   S
    C248   O776      0.63572      .   S
    C393   O777      0.63570      .   S
    C249   O777      0.63570      .   S
    C394   O778      0.63573      .   S
    C250   O778      0.63573      .   S
    C395   O779      0.63571      .   S
    C251   O779      0.63571      .   S
    C346   O780      0.64511      .   S
    C190   O780      0.64511      .   S
    C347   O781      0.64323      .   S
    C191   O781      0.64323      .   S
    C345   O782      0.64323      .   S
    C189   O782      0.64323      .   S
    C344   O783      0.64323      .   S
    C188   O783      0.64323      .   S
    C350   O784      0.63429      .   S
    C190   O784      0.63429      .   S
    C351   O785      0.63398      .   S
    C191   O785      0.63398      .   S
    C349   O786      0.63398      .   S
    C189   O786      0.63398      .   S
    C348   O787      0.63397      .   S
    C188   O787      0.63397      .   S
    C251   O788      0.74865      .   S
    C255   O788      0.74865      .   S
    C249   O789      0.74866      .   S
    C253   O789      0.74866      .   S
    C248   O790      0.74863      .   S
    C252   O790      0.74863      .   S
    C250   O791      0.74863      .   S
    C254   O791      0.74863      .   S
    C291   O792      0.54885      .   S
    C119   O792      0.54885      .   S
    C291   O793      0.54887      .   S
    C123   O793      0.54887      .   S
    C291   O794      0.54986      .   S
    C127   O794      0.54986      .   S
    C289   O795      0.54884      .   S
    C117   O795      0.54884      .   S
    C289   O796      0.54887      .   S
    C121   O796      0.54887      .   S
    C289   O797      0.54987      .   S
    C125   O797      0.54987      .   S
    C290   O798      0.54872      .   S
    C118   O798      0.54872      .   S
    C290   O799      0.54872      .   S
    C122   O799      0.54872      .   S
    C290   O800      0.54959      .   S
    C126   O800      0.54959      .   S
    C288   O801      0.54872      .   S
    C116   O801      0.54872      .   S
    C288   O802      0.54872      .   S
    C120   O802      0.54872      .   S
    C288   O803      0.54959      .   S
    C124   O803      0.54959      .   S
    C191   O804      0.74855      .   S
    C187   O804      0.74855      .   S
    C189   O805      0.74855      .   S
    C185   O805      0.74855      .   S
    C188   O806      0.74869      .   S
    C184   O806      0.74869      .   S
    C190   O807      0.74871      .   S
    C186   O807      0.74871      .   S
    C253   O808      0.70171      .   S
    C256   O808      0.70171      .   S
    C253   O809      0.70169      .   S
    C261   O809      0.70169      .   S
    C255   O810      0.70170      .   S
    C258   O810      0.70170      .   S
    C255   O811      0.70169      .   S
    C263   O811      0.70169      .   S
    C254   O812      0.70169      .   S
    C259   O812      0.70169  1_565   S
    C254   O813      0.70171      .   S
    C262   O813      0.70171      .   S
    C252   O814      0.70170      .   S
    C257   O814      0.70170  1_565   S
    C252   O815      0.70170      .   S
    C260   O815      0.70170      .   S
    C96    O816      0.54436      .   S
    C256   O816      0.54436      .   S
    C98    O817      0.54436      .   S
    C258   O817      0.54436      .   S
    C97    O818      0.54438      .   S
    C257   O818      0.54438      .   S
    C99    O819      0.54438      .   S
    C259   O819      0.54438      .   S
    C100   O820      0.54444      .   S
    C260   O820      0.54444      .   S
    C102   O821      0.54443      .   S
    C262   O821      0.54443      .   S
    C101   O822      0.54458      .   S
    C261   O822      0.54458      .   S
    C103   O823      0.54443      .   S
    C263   O823      0.54443      .   S
    C185   O824      0.70163      .   S
    C181   O824      0.70163      .   S
    C185   O825      0.70183      .   S
    C177   O825      0.70183      .   S
    C187   O826      0.70163      .   S
    C183   O826      0.70163      .   S
    C187   O827      0.70183      .   S
    C179   O827      0.70183      .   S
    C184   O828      0.70155      .   S
    C180   O828      0.70155      .   S
    C184   O829      0.70173      .   S
    C176   O829      0.70173      .   S
    C186   O830      0.70156      .   S
    C182   O830      0.70156      .   S
    C186   O831      0.70172      .   S
    C178   O831      0.70172      .   S
    C45    O832      0.54420      .   S
    C181   O832      0.54420      .   S
    C47    O833      0.54419      .   S
    C183   O833      0.54419      .   S
    C46    O834      0.54425      .   S
    C182   O834      0.54425      .   S
    C44    O835      0.54419      .   S
    C180   O835      0.54419      .   S
    C41    O836      0.54445      .   S
    C177   O836      0.54445      .   S
    C43    O837      0.54445      .   S
    C179   O837      0.54445      .   S
    C42    O838      0.54441      .   S
    C178   O838      0.54441      .   S
    C40    O839      0.54440      .   S
    C176   O839      0.54440      .   S
    C256   O840      0.69530      .   S
    C264   O840      0.69530      .   S
    C258   O841      0.69530      .   S
    C266   O841      0.69530      .   S
    C257   O842      0.69536      .   S
    C265   O842      0.69536      .   S
    C259   O843      0.69536      .   S
    C267   O843      0.69536      .   S
    C260   O844      0.69529      .   S
    C268   O844      0.69529      .   S
    C262   O845      0.69529      .   S
    C270   O845      0.69529      .   S
    C263   O846      0.69534      .   S
    C271   O846      0.69534      .   S
    C261   O847      0.69533      .   S
    C269   O847      0.69533      .   S
    C183   O848      0.69534      .   S
    C175   O848      0.69534      .   S
    C181   O849      0.69534      .   S
    C173   O849      0.69534      .   S
    C180   O850      0.69536      .   S
    C172   O850      0.69536      .   S
    C182   O851      0.69535      .   S
    C174   O851      0.69535      .   S
    C177   O852      0.69533      .   S
    C169   O852      0.69533      .   S
    C179   O853      0.69533      .   S
    C171   O853      0.69533      .   S
    C176   O854      0.69534      .   S
    C168   O854      0.69534      .   S
    C178   O855      0.69534      .   S
    C170   O855      0.69534      .   S
    C264   O856      0.54418      .   S
    C104   O856      0.54418      .   S
    C264   O857      0.70145      .   S
    C272   O857      0.70145      .   S
    C266   O858      0.54418      .   S
    C106   O858      0.54418      .   S
    C266   O859      0.70146      .   S
    C274   O859      0.70146      .   S
    C267   O860      0.54445      .   S
    C107   O860      0.54445      .   S
    C267   O861      0.70178      .   S
    C275   O861      0.70178      .   S
    C265   O862      0.54444      .   S
    C105   O862      0.54444      .   S
    C265   O863      0.70179      .   S
    C273   O863      0.70179      .   S
    C268   O864      0.54386      .   S
    C108   O864      0.54386      .   S
    C268   O865      0.70159  1_545   S
    C273   O865      0.70159      .   S
    C270   O866      0.54386      .   S
    C110   O866      0.54386      .   S
    C270   O867      0.70160  1_545   S
    C275   O867      0.70160      .   S
    C269   O868      0.54424      .   S
    C109   O868      0.54424      .   S
    C269   O869      0.70126      .   S
    C272   O869      0.70126      .   S
    C271   O870      0.54424      .   S
    C111   O870      0.54424      .   S
    C271   O871      0.70126      .   S
    C274   O871      0.70126      .   S
    C173   O872      0.54441      .   S
    C37    O872      0.54441      .   S
    C173   O873      0.70168      .   S
    C165   O873      0.70168      .   S
    C175   O874      0.54442      .   S
    C39    O874      0.54442      .   S
    C175   O875      0.70167      .   S
    C167   O875      0.70167      .   S
    C172   O876      0.54441      .   S
    C36    O876      0.54441      .   S
    C172   O877      0.70166      .   S
    C164   O877      0.70166      .   S
    C174   O878      0.54413      .   S
    C38    O878      0.54413      .   S
    C174   O879      0.70164      .   S
    C166   O879      0.70164      .   S
    C169   O880      0.54426      .   S
    C33    O880      0.54426      .   S
    C169   O881      0.70166      .   S
    C165   O881      0.70166      .   S
    C171   O882      0.54425      .   S
    C35    O882      0.54425      .   S
    C171   O883      0.70167      .   S
    C167   O883      0.70167      .   S
    C168   O884      0.54435      .   S
    C32    O884      0.54435      .   S
    C168   O885      0.70167      .   S
    C164   O885      0.70167      .   S
    C170   O886      0.54435      .   S
    C34    O886      0.54435      .   S
    C170   O887      0.70168      .   S
    C166   O887      0.70168      .   S
    C272   O888      0.74931      .   S
    C276   O888      0.74931      .   S
    C274   O889      0.74931      .   S
    C278   O889      0.74931      .   S
    C275   O890      0.74866      .   S
    C279   O890      0.74866      .   S
    C273   O891      0.74866      .   S
    C277   O891      0.74866      .   S
    C167   O892      0.74801      .   S
    C163   O892      0.74801      .   S
    C165   O893      0.74801      .   S
    C161   O893      0.74801      .   S
    C166   O894      0.74863      .   S
    C162   O894      0.74863      .   S
    C164   O895      0.74863      .   S
    C160   O895      0.74863      .   S
    C63    O896      0.54958      .   S
    C203   O896      0.54958      .   S
    C61    O897      0.54938      .   S
    C201   O897      0.54938      .   S
    C62    O898      0.54926      .   S
    C202   O898      0.54926      .   S
    C60    O899      0.54958      .   S
    C200   O899      0.54958      .   S
    C276   O900      0.63379      .   S
    C404   O900      0.63379      .   S
    C276   O901      0.64326      .   S
    C400   O901      0.64326      .   S
    C278   O902      0.63378      .   S
    C406   O902      0.63378      .   S
    C278   O903      0.64327      .   S
    C402   O903      0.64327      .   S
    C277   O904      0.63394      .   S
    C405   O904      0.63394      .   S
    C277   O905      0.64311      .   S
    C401   O905      0.64311      .   S
    C279   O906      0.63393      .   S
    C407   O906      0.63393      .   S
    C279   O907      0.64311      .   S
    C403   O907      0.64311      .   S
    C56    O908      0.54888      .   S
    C200   O908      0.54888      .   S
    C57    O909      0.54868      .   S
    C201   O909      0.54868      .   S
    C59    O910      0.54874      .   S
    C203   O910      0.54874      .   S
    C58    O911      0.54853      .   S
    C202   O911      0.54853      .   S
    C53    O912      0.54861      .   S
    C201   O912      0.54861      .   S
    C55    O913      0.54870      .   S
    C203   O913      0.54870      .   S
    C52    O914      0.54871      .   S
    C200   O914      0.54871      .   S
    C54    O915      0.54856      .   S
    C202   O915      0.54856      .   S
    C161   O916      0.63601      .   S
    C337   O916      0.63601      .   S
    C161   O917      0.64153      .   S
    C341   O917      0.64153      .   S
    C163   O918      0.63601      .   S
    C339   O918      0.63601      .   S
    C163   O919      0.64153      .   S
    C343   O919      0.64153      .   S
    C160   O920      0.63577      .   S
    C336   O920      0.63577      .   S
    C160   O921      0.64124      .   S
    C340   O921      0.64124      .   S
    C162   O922      0.63576      .   S
    C338   O922      0.63576      .   S
    C162   O923      0.64124      .   S
    C342   O923      0.64124      .   S
    C201   O924      0.76722      .   S
    C197   O924      0.76722      .   S
    C202   O925      0.76736      .   S
    C198   O925      0.76736      .   S
    C203   O926      0.76682      .   S
    C199   O926      0.76682      .   S
    C200   O927      0.76676      .   S
    C196   O927      0.76676      .   S
    C404   O928      1.01180      .   S
    C28    O928      1.01180      .   S
    C406   O929      1.01181      .   S
    C30    O929      1.01181      .   S
    C405   O930      1.01154      .   S
    C29    O930      1.01154      .   S
    C407   O931      1.01155      .   S
    C31    O931      1.01155      .   S
    C400   O932      0.97886      .   S
    C24    O932      0.97886      .   S
    C402   O933      0.97886      .   S
    C26    O933      0.97886      .   S
    C401   O934      0.97933      .   S
    C25    O934      0.97933      .   S
    C403   O935      0.97933      .   S
    C27    O935      0.97933      .   S
    C199   O936      0.76464      .   S
    C195   O936      0.76464      .   S
    C199   O937      0.71320      .   S
    C363   O937      0.71320      .   S
    C197   O938      0.76445      .   S
    C193   O938      0.76445      .   S
    C197   O939      0.71320      .   S
    C361   O939      0.71320      .   S
    C198   O940      0.76465      .   S
    C194   O940      0.76465      .   S
    C198   O941      0.71322      .   S
    C362   O941      0.71322      .   S
    C196   O942      0.76465      .   S
    C192   O942      0.76465      .   S
    C196   O943      0.71322      .   S
    C360   O943      0.71322      .   S
    C357   O944      1.02420      .   S
    C31    O944      1.02420      .   S
    C357   O945      0.62820      .   S
    C193   O945      0.62820      .   S
    C359   O946      1.02419  1_655   S
    C29    O946      1.02419      .   S
    C359   O947      0.62837      .   S
    C195   O947      0.62837      .   S
    C356   O948      1.02418      .   S
    C30    O948      1.02418      .   S
    C356   O949      0.62836      .   S
    C192   O949      0.62836      .   S
    C358   O950      1.02417  1_655   S
    C28    O950      1.02417      .   S
    C358   O951      0.62837      .   S
    C194   O951      0.62837      .   S
    C439   O952      1.01375      .   S
    C27    O952      1.01375      .   S
    C437   O953      1.01375      .   S
    C25    O953      1.01375      .   S
    C438   O954      1.01373      .   S
    C26    O954      1.01373      .   S
    C436   O955      1.01373      .   S
    C24    O955      1.01373      .   S
    C27    O956      0.96595      .   S
    C363   O956      0.96595      .   S
    C25    O957      0.96595      .   S
    C361   O957      0.96595      .   S
    C24    O958      0.96594      .   S
    C360   O958      0.96594      .   S
    C26    O959      0.96594      .   S
    C362   O959      0.96594      .   S
    C352   O960      1.09337      .   S
    C4     O960      1.09337      .   S
    C353   O961      1.09335      .   S
    C5     O961      1.09335      .   S
    C354   O962      1.09338      .   S
    C6     O962      1.09338      .   S
    C355   O963      1.09335      .   S
    C7     O963      1.09335      .   S
    C360   O964      1.01730  1_556   S
    C4     O964      1.01730      .   S
    C361   O965      1.01736  1_556   S
    C5     O965      1.01736      .   S
    C362   O966      1.01730  1_556   S
    C6     O966      1.01730      .   S
    C363   O967      1.01736  1_556   S
    C7     O967      1.01736      .   S
    C380   O968      1.09325      .   S
    C12    O968      1.09325      .   S
    C381   O969      1.09324      .   S
    C13    O969      1.09324      .   S
    C382   O970      1.09324      .   S
    C14    O970      1.09324      .   S
    C383   O971      1.09324      .   S
    C15    O971      1.09324      .   S
    C388   O972      1.01596      .   S
    C12    O972      1.01596      .   S
    C389   O973      1.01595      .   S
    C13    O973      1.01595      .   S
    C390   O974      1.01596      .   S
    C14    O974      1.01596      .   S
    C391   O975      1.01595      .   S
    C15    O975      1.01595      .   S
    C408   O976      1.09322      .   S
    C20    O976      1.09322      .   S
    C409   O977      1.09341      .   S
    C21    O977      1.09341      .   S
    C410   O978      1.09323      .   S
    C22    O978      1.09323      .   S
    C411   O979      1.09341      .   S
    C23    O979      1.09341      .   S
    C416   O980      1.01739      .   S
    C20    O980      1.01739      .   S
    C417   O981      1.01589      .   S
    C21    O981      1.01589      .   S
    C418   O982      1.01739      .   S
    C22    O982      1.01739      .   S
    C419   O983      1.01589      .   S
    C23    O983      1.01589      .   S
    C436   O984      1.09388      .   S
    C28    O984      1.09388      .   S
    C437   O985      1.09397      .   S
    C29    O985      1.09397      .   S
    C438   O986      1.09389      .   S
    C30    O986      1.09389      .   S
    C439   O987      1.09396      .   S
    C31    O987      1.09396      .   S
    C444   O988      1.01598  1_554   S
    C28    O988      1.01598      .   S
    C445   O989      1.01595  1_554   S
    C29    O989      1.01595      .   S
    C446   O990      1.01598  1_554   S
    C30    O990      1.01598      .   S
    C447   O991      1.01596  1_554   S
    C31    O991      1.01596      .   S
