# CIF file generated by openbabel 2.4.90, see http://openbabel.sf.net
data_I
_chemical_name_common ''
_cell_length_a 21.836
_cell_length_b 13.243
_cell_length_c 13.24
_cell_angle_alpha 119.454
_cell_angle_beta 90.024
_cell_angle_gamma 90.096
_space_group_name_H-M_alt 'P 1'
_space_group_name_Hall 'P 1'
loop_
    _symmetry_equiv_pos_as_xyz
    x,y,z
loop_
    _atom_site_label
    _atom_site_type_symbol
    _atom_site_fract_x
    _atom_site_fract_y
    _atom_site_fract_z
    _atom_site_occupancy
    Mc0     Mc   0.17447   0.85367   0.49292   1.000
    Mc1     Mc   0.82608   0.85321   0.35769   1.000
    Mc2     Mc   0.82555   0.14641   0.50706   1.000
    Mc3     Mc   0.17395   0.14688   0.64230   1.000
    Ts4     Ts   0.00001   0.00004   0.50001   1.000
    Mc5     Mc   0.32574   0.14738   0.50744   1.000
    Mc6     Mc   0.67428   0.85272   0.49259   1.000
    Mc7     Mc   0.32594   0.85419   0.35765   1.000
    Mc8     Mc   0.67408   0.14590   0.64234   1.000
    Ts9     Ts   0.50001   0.00005   0.50001   1.000
    Mc10    Mc   0.67397   0.35863   0.50683   1.000
    Mc11    Mc   0.67415   0.50628   0.35874   1.000
    Mc12    Mc   0.32605   0.64146   0.49319   1.000
    Mc13    Mc   0.32587   0.49382   0.64130   1.000
    Ts14    Ts   0.50001   0.50004   0.50001   1.000
    Mc15    Mc   0.67448   0.49222   0.85299   1.000
    Mc16    Mc   0.32583   0.35832   0.85377   1.000
    Mc17    Mc   0.67419   0.64176   0.14625   1.000
    Mc18    Mc   0.32554   0.50787   0.14702   1.000
    Ts19    Ts   0.50001   0.50005   0.99999   1.000
    Mc20    Mc   0.82601   0.35760   0.85371   1.000
    Mc21    Mc   0.82570   0.50691   0.14703   1.000
    Mc22    Mc   0.17401   0.64249   0.14630   1.000
    Mc23    Mc   0.17432   0.49318   0.85299   1.000
    Ts24    Ts   0.00001   0.50005   1.00000   1.000
    Mc25    Mc   0.82591   0.49264   0.64081   1.000
    Mc26    Mc   0.17417   0.35916   0.50662   1.000
    Mc27    Mc   0.82585   0.64094   0.49341   1.000
    Mc28    Mc   0.17411   0.50745   0.35921   1.000
    Ts29    Ts   0.00001   0.50005   0.50001   1.000
