# CIF file generated by openbabel 2.4.90, see http://openbabel.sf.net
data_I
_chemical_name_common ''
_cell_length_a 21.836
_cell_length_b 13.243
_cell_length_c 13.24
_cell_angle_alpha 119.454
_cell_angle_beta 90.024
_cell_angle_gamma 90.096
_space_group_name_H-M_alt 'P 1'
_space_group_name_Hall 'P 1'
loop_
    _symmetry_equiv_pos_as_xyz
    x,y,z
loop_
    _atom_site_label
    _atom_site_type_symbol
    _atom_site_fract_x
    _atom_site_fract_y
    _atom_site_fract_z
    _atom_site_occupancy
    N0      N    0.12817   0.00023   0.54850   1.000
    N1      N    0.87185   0.99983   0.45152   1.000
    O2      O    0.05601   0.00012   0.52118   1.000
    N3      N    0.37189   0.00058   0.45162   1.000
    N4      N    0.62813   0.99949   0.54840   1.000
    O5      O    0.55599   0.99980   0.52114   1.000
    N6      N    0.37197   0.54855   0.54821   1.000
    N7      N    0.62805   0.45154   0.45182   1.000
    O8      O    0.55595   0.47886   0.47897   1.000
    N9      N    0.62826   0.54800   0.99978   1.000
    N10     N    0.37177   0.45208   0.00021   1.000
    O11     O    0.55605   0.52099   0.99990   1.000
    N12     N    0.12812   0.54871   0.99980   1.000
    N13     N    0.87190   0.45138   0.00022   1.000
    O14     O    0.05599   0.52130   0.99990   1.000
    N15     N    0.87192   0.54789   0.54807   1.000
    N16     N    0.12810   0.45220   0.45196   1.000
    O17     O    0.05598   0.47915   0.47903   1.000
    Zr18    Zr   0.74999   0.33185   0.66745   1.000
    O19     O    0.77685   0.33792   0.73183   1.000
    O20     O    0.77666   0.26778   0.60929   1.000
    O21     O    0.72318   0.26758   0.66163   1.000
    O22     O    0.77680   0.39017   0.66101   1.000
    O23     O    0.72334   0.38999   0.73155   1.000
    O24     O    0.72314   0.33834   0.60918   1.000
    Zr25    Zr   0.25004   0.66824   0.33257   1.000
    O26     O    0.22318   0.66217   0.26818   1.000
    O27     O    0.27669   0.61010   0.26847   1.000
    O28     O    0.27685   0.73251   0.33838   1.000
    O29     O    0.22322   0.60992   0.33901   1.000
    O30     O    0.27689   0.66175   0.39084   1.000
    O31     O    0.22337   0.73231   0.39071   1.000
    Zr32    Zr   0.75004   0.66731   0.33244   1.000
    O33     O    0.72324   0.60888   0.33874   1.000
    O34     O    0.72325   0.66131   0.26808   1.000
    O35     O    0.77681   0.66098   0.39085   1.000
    O36     O    0.77675   0.60914   0.26839   1.000
    O37     O    0.72329   0.73136   0.39050   1.000
    O38     O    0.77690   0.73155   0.33832   1.000
    Zr39    Zr   0.24999   0.33278   0.66759   1.000
    O40     O    0.22322   0.33912   0.60917   1.000
    O41     O    0.22328   0.39095   0.73164   1.000
    O42     O    0.22312   0.26854   0.66169   1.000
    O43     O    0.27678   0.39122   0.66129   1.000
    O44     O    0.27673   0.26873   0.60953   1.000
    O45     O    0.27677   0.33877   0.73195   1.000
loop_
    _geom_bond_atom_site_label_1
    _geom_bond_atom_site_label_2
    _geom_bond_distance
    _geom_bond_site_symmetry_2
    _ccdc_geom_bond_type
    N1     O2        4.12476  1_665   S
    N0     O2        1.61634      .   S
    N3     O5        4.12482  1_545   S
    N4     O5        1.61633      .   S
    N6     O8        4.12492      .   S
    N7     O8        1.61637      .   S
    N10    O11       4.12519  1_554   S
    N9     O11       1.61652      .   S
    N13    O14       4.12403  1_654   S
    N12    O14       1.61600      .   S
    N15    O17       4.12475  1_655   S
    N16    O17       1.61634      .   S
    Zr18   O19       1.00452      .   S
    N13    O19       3.73159  1_554   S
    Zr18   O20       1.00569      .   S
    N1     O20       3.74361  1_565   S
    Zr18   O21       1.00342      .   S
    N4     O21       3.72806  1_565   S
    Zr18   O22       1.00497      .   S
    N15    O22       3.73795      .   S
    Zr18   O23       1.00553      .   S
    N9     O23       3.74345      .   S
    Zr18   O24       1.00565      .   S
    N7     O24       3.73878      .   S
    Zr25   O26       1.00454      .   S
    N12    O26       3.73163  1_556   S
    Zr25   O27       1.00554      .   S
    N10    O27       3.74373      .   S
    Zr25   O28       1.00347      .   S
    N3     O28       3.72771  1_545   S
    Zr25   O29       1.00498      .   S
    N16    O29       3.73799      .   S
    Zr25   O30       1.00566      .   S
    N6     O30       3.73880      .   S
    Zr25   O31       1.00560      .   S
    N0     O31       3.74344  1_545   S
    Zr32   O33       1.00508      .   S
    N7     O33       3.73623      .   S
    Zr32   O34       1.00375      .   S
    N9     O34       3.73010  1_556   S
    Zr32   O35       1.00518      .   S
    N15    O35       3.73657      .   S
    Zr32   O36       1.00605      .   S
    N13    O36       3.74348      .   S
    Zr32   O37       1.00615      .   S
    N4     O37       3.74499      .   S
    Zr32   O38       1.00357      .   S
    N1     O38       3.72876      .   S
    Zr39   O40       1.00520      .   S
    N16    O40       3.73657      .   S
    Zr39   O41       1.00604      .   S
    N12    O41       3.74344      .   S
    Zr39   O42       1.00353      .   S
    N0     O42       3.72915      .   S
    Zr39   O43       1.00508      .   S
    N6     O43       3.73619      .   S
    Zr39   O44       1.00613      .   S
    N3     O44       3.74517      .   S
    Zr39   O45       1.00373      .   S
    N10    O45       3.72978  1_554   S
