# CIF file generated by openbabel 2.4.90, see http://openbabel.sf.net
data_I
_chemical_name_common ''
_cell_length_a 10.118
_cell_length_b 11.5265
_cell_length_c 14.927
_cell_angle_alpha 91.151
_cell_angle_beta 90.01
_cell_angle_gamma 90.045
_space_group_name_H-M_alt 'P 1'
_space_group_name_Hall 'P 1'
loop_
    _symmetry_equiv_pos_as_xyz
    x,y,z
loop_
    _atom_site_label
    _atom_site_type_symbol
    _atom_site_fract_x
    _atom_site_fract_y
    _atom_site_fract_z
    _atom_site_occupancy
    Zn0     Zn   0.88241   0.74069   0.30879   1.000
    Zn1     Zn   0.57196   0.74512   0.36834   1.000
    Zn2     Zn   0.38242   0.75936   0.19121   1.000
    Zn3     Zn   0.92802   0.24509   0.86826   1.000
    Zn4     Zn   0.11756   0.25930   0.69121   1.000
    Zn5     Zn   0.42801   0.25486   0.63165   1.000
    Zn6     Zn   0.61755   0.24063   0.80880   1.000
    Zn7     Zn   1.00000   0.49999   1.00000   1.000
    Zn8     Zn   0.49999   0.00000   0.50000   1.000
    Zn9     Zn   0.00000   0.00000   1.00000   1.000
    Zn10    Zn   0.49998   0.49999   0.50000   1.000
    Zn11    Zn   0.07195   0.75489   0.13173   1.000
    Ts12    Ts   0.93794   0.76554   0.32726   1.000
    Ts13    Ts   0.91452   0.70379   0.27734   1.000
    Ts14    Ts   0.89230   0.77728   0.26971   1.000
    Ts15    Ts   0.81818   0.72692   0.29044   1.000
    Ts16    Ts   0.83785   0.77686   0.33489   1.000
    Ts17    Ts   0.87861   0.69755   0.33988   1.000
    Ts18    Ts   0.61121   0.72988   0.33014   1.000
    Ts19    Ts   0.54098   0.78676   0.34075   1.000
    Ts20    Ts   0.63088   0.77982   0.37459   1.000
    Ts21    Ts   0.51863   0.71327   0.34838   1.000
    Ts22    Ts   0.53868   0.76821   0.40477   1.000
    Ts23    Ts   0.59863   0.69812   0.39111   1.000
    Ts24    Ts   0.31822   0.77312   0.20957   1.000
    Ts25    Ts   0.33780   0.72320   0.16511   1.000
    Ts26    Ts   0.37865   0.80257   0.16015   1.000
    Ts27    Ts   0.43790   0.73453   0.17273   1.000
    Ts28    Ts   0.41462   0.79625   0.22266   1.000
    Ts29    Ts   0.39227   0.72276   0.23029   1.000
    Ts30    Ts   0.88873   0.22985   0.83007   1.000
    Ts31    Ts   0.95910   0.28672   0.84069   1.000
    Ts32    Ts   0.86915   0.27976   0.87453   1.000
    Ts33    Ts   0.98131   0.21324   0.84833   1.000
    Ts34    Ts   0.96126   0.26821   0.90472   1.000
    Ts35    Ts   0.90133   0.19803   0.89101   1.000
    Ts36    Ts   0.06203   0.23446   0.67273   1.000
    Ts37    Ts   0.08546   0.29619   0.72266   1.000
    Ts38    Ts   0.10767   0.22271   0.73029   1.000
    Ts39    Ts   0.18179   0.27306   0.70956   1.000
    Ts40    Ts   0.16213   0.22312   0.66511   1.000
    Ts41    Ts   0.12136   0.30244   0.66012   1.000
    Ts42    Ts   0.38876   0.27011   0.66986   1.000
    Ts43    Ts   0.45899   0.21323   0.65924   1.000
    Ts44    Ts   0.36909   0.22016   0.62541   1.000
    Ts45    Ts   0.48134   0.28672   0.65162   1.000
    Ts46    Ts   0.46129   0.23178   0.59522   1.000
    Ts47    Ts   0.40134   0.30187   0.60888   1.000
    Ts48    Ts   0.68175   0.22687   0.79043   1.000
    Ts49    Ts   0.66217   0.27678   0.83489   1.000
    Ts50    Ts   0.62132   0.19742   0.83985   1.000
    Ts51    Ts   0.56207   0.26546   0.82727   1.000
    Ts52    Ts   0.58535   0.20374   0.77734   1.000
    Ts53    Ts   0.60770   0.27723   0.76971   1.000
    Ts54    Ts   0.99978   0.48650   0.04602   1.000
    Ts55    Ts   0.06892   0.50662   0.00020   1.000
    Ts56    Ts   0.99075   0.56185   0.00744   1.000
    Ts57    Ts   0.00021   0.51349   0.95397   1.000
    Ts58    Ts   0.93106   0.49336   0.99980   1.000
    Ts59    Ts   0.00924   0.43814   0.99255   1.000
    Ts60    Ts   0.49981   0.01350   0.45401   1.000
    Ts61    Ts   0.56894   0.99339   0.49980   1.000
    Ts62    Ts   0.49070   0.93812   0.49254   1.000
    Ts63    Ts   0.50016   0.98650   0.54599   1.000
    Ts64    Ts   0.43104   0.00660   0.50021   1.000
    Ts65    Ts   0.50928   0.06188   0.50746   1.000
    Ts66    Ts   0.96323   0.00674   0.03936   1.000
    Ts67    Ts   0.96293   0.95024   0.98800   1.000
    Ts68    Ts   0.05067   0.96536   0.02116   1.000
    Ts69    Ts   0.03675   0.99326   0.96064   1.000
    Ts70    Ts   0.03706   0.04976   0.01199   1.000
    Ts71    Ts   0.94932   0.03464   0.97883   1.000
    Ts72    Ts   0.46321   0.49324   0.46061   1.000
    Ts73    Ts   0.46291   0.54969   0.51200   1.000
    Ts74    Ts   0.55064   0.53470   0.47888   1.000
    Ts75    Ts   0.53676   0.50674   0.53938   1.000
    Ts76    Ts   0.53706   0.45030   0.48800   1.000
    Ts77    Ts   0.44933   0.46529   0.52112   1.000
    Ts78    Ts   0.11124   0.77014   0.16992   1.000
    Ts79    Ts   0.04088   0.71326   0.15930   1.000
    Ts80    Ts   0.13082   0.72023   0.12546   1.000
    Ts81    Ts   0.01866   0.78675   0.15167   1.000
    Ts82    Ts   0.03871   0.73178   0.09527   1.000
    Ts83    Ts   0.09864   0.80196   0.10899   1.000
loop_
    _geom_bond_atom_site_label_1
    _geom_bond_atom_site_label_2
    _geom_bond_distance
    _geom_bond_site_symmetry_2
    _ccdc_geom_bond_type
    Zn0    Ts12      0.68577      .   S
    Zn0    Ts13      0.70644      .   S
    Zn0    Ts14      0.73356      .   S
    Zn0    Ts15      0.72155      .   S
    Zn0    Ts16      0.72304      .   S
    Zn0    Ts17      0.68801      .   S
    Zn1    Ts18      0.71412      .   S
    Zn1    Ts19      0.71152      .   S
    Zn1    Ts20      0.72259      .   S
    Zn1    Ts21      0.71417      .   S
    Zn1    Ts22      0.68866      .   S
    Zn1    Ts23      0.69962      .   S
    Zn2    Ts24      0.72160      .   S
    Zn2    Ts25      0.72273      .   S
    Zn2    Ts26      0.68826      .   S
    Zn2    Ts27      0.68573      .   S
    Zn2    Ts28      0.70651      .   S
    Zn2    Ts29      0.73362      .   S
    Zn3    Ts30      0.71389      .   S
    Zn3    Ts31      0.71147      .   S
    Zn3    Ts32      0.72259      .   S
    Zn3    Ts33      0.71417      .   S
    Zn3    Ts34      0.68868      .   S
    Zn3    Ts35      0.69980      .   S
    Zn4    Ts36      0.68574      .   S
    Zn4    Ts37      0.70643      .   S
    Zn4    Ts38      0.73355      .   S
    Zn4    Ts39      0.72154      .   S
    Zn4    Ts40      0.72304      .   S
    Zn4    Ts41      0.68800      .   S
    Zn5    Ts42      0.71413      .   S
    Zn5    Ts43      0.71152      .   S
    Zn5    Ts44      0.72260      .   S
    Zn5    Ts45      0.71419      .   S
    Zn5    Ts46      0.68866      .   S
    Zn5    Ts47      0.69961      .   S
    Zn6    Ts48      0.72160      .   S
    Zn6    Ts49      0.72273      .   S
    Zn6    Ts50      0.68825      .   S
    Zn6    Ts51      0.68572      .   S
    Zn6    Ts52      0.70651      .   S
    Zn6    Ts53      0.73363      .   S
    Zn7    Ts54      0.70745  1_556   S
    Zn7    Ts55      0.70149  1_656   S
    Zn7    Ts56      0.72551  1_556   S
    Zn7    Ts57      0.70745  1_655   S
    Zn7    Ts58      0.70158      .   S
    Zn7    Ts59      0.72550  1_655   S
    Zn8    Ts60      0.70693      .   S
    Zn8    Ts61      0.70186  1_545   S
    Zn8    Ts62      0.72570  1_545   S
    Zn8    Ts63      0.70692  1_545   S
    Zn8    Ts64      0.70187      .   S
    Zn8    Ts65      0.72564      .   S
    Zn9    Ts66      0.69852  1_456   S
    Zn9    Ts67      0.70515  1_445   S
    Zn9    Ts68      0.72623  1_546   S
    Zn9    Ts69      0.69847  1_545   S
    Zn9    Ts70      0.70506  1_556   S
    Zn9    Ts71      0.72627  1_455   S
    Zn10   Ts72      0.69867      .   S
    Zn10   Ts73      0.70512      .   S
    Zn10   Ts74      0.72587      .   S
    Zn10   Ts75      0.69867      .   S
    Zn10   Ts76      0.70512      .   S
    Zn10   Ts77      0.72586      .   S
    Zn11   Ts78      0.71389      .   S
    Zn11   Ts79      0.71147      .   S
    Zn11   Ts80      0.72259      .   S
    Zn11   Ts81      0.71418      .   S
    Zn11   Ts82      0.68869      .   S
    Zn11   Ts83      0.69980      .   S
