# CIF file generated by openbabel 2.4.90, see http://openbabel.sf.net
data_I
_chemical_name_common ''
_cell_length_a 23.068
_cell_length_b 16.552
_cell_length_c 16.552
_cell_angle_alpha 90.011
_cell_angle_beta 89.999
_cell_angle_gamma 90.002
_space_group_name_H-M_alt 'P 1'
_space_group_name_Hall 'P 1'
loop_
    _symmetry_equiv_pos_as_xyz
    x,y,z
loop_
    _atom_site_label
    _atom_site_type_symbol
    _atom_site_fract_x
    _atom_site_fract_y
    _atom_site_fract_z
    _atom_site_occupancy
    H0      H    0.09299   0.15554   0.24534   1.000
    H1      H    0.59299   0.15554   0.24534   1.000
    H2      H    0.09294   0.84443   0.75467   1.000
    H3      H    0.59294   0.84443   0.75467   1.000
    H4      H    0.09295   0.75448   0.15554   1.000
    H5      H    0.59295   0.75448   0.15554   1.000
    H6      H    0.09298   0.24555   0.84447   1.000
    H7      H    0.59298   0.24555   0.84447   1.000
    H8      H    0.15702   0.34449   0.74545   1.000
    H9      H    0.65702   0.34449   0.74545   1.000
    H10     H    0.15704   0.65553   0.25455   1.000
    H11     H    0.65704   0.65553   0.25455   1.000
    H12     H    0.15703   0.74544   0.65556   1.000
    H13     H    0.65703   0.74544   0.65556   1.000
    H14     H    0.15704   0.25457   0.34442   1.000
    H15     H    0.65704   0.25457   0.34442   1.000
    H16     H    0.40701   0.84447   0.75465   1.000
    H17     H    0.90701   0.84447   0.75465   1.000
    H18     H    0.40706   0.15558   0.24532   1.000
    H19     H    0.90706   0.15558   0.24532   1.000
    H20     H    0.40705   0.24553   0.84445   1.000
    H21     H    0.90705   0.24553   0.84445   1.000
    H22     H    0.40702   0.75446   0.15550   1.000
    H23     H    0.90702   0.75446   0.15552   1.000
    H24     H    0.34297   0.65552   0.25454   1.000
    H25     H    0.84298   0.65552   0.25454   1.000
    H26     H    0.34296   0.34448   0.74545   1.000
    H27     H    0.84296   0.34448   0.74545   1.000
    H28     H    0.34297   0.25458   0.34443   1.000
    H29     H    0.84297   0.25458   0.34443   1.000
    H30     H    0.34296   0.74544   0.65556   1.000
    H31     H    0.84296   0.74544   0.65550   1.000
    H32     H    0.00000   0.94041   0.17551   1.000
    H33     H    0.50000   0.94041   0.17551   1.000
    H34     H    1.00000   0.05959   0.82448   1.000
    H35     H    0.50000   0.05959   0.82448   1.000
    H36     H    1.00000   0.82437   0.94042   1.000
    H37     H    0.50000   0.82437   0.94042   1.000
    H38     H    0.00000   0.17564   0.05957   1.000
    H39     H    0.50000   0.17564   0.05957   1.000
    H40     H    0.25000   0.55963   0.67567   1.000
    H41     H    0.75000   0.55963   0.67567   1.000
    H42     H    0.25000   0.44039   0.32432   1.000
    H43     H    0.75000   0.44039   0.32432   1.000
    H44     H    0.25000   0.67549   0.44040   1.000
    H45     H    0.75000   0.67549   0.44040   1.000
    H46     H    0.25000   0.32455   0.55950   1.000
    H47     H    0.75000   0.32455   0.55950   1.000
    C48     C    0.05247   0.12360   0.23470   1.000
    C49     C    0.55247   0.12360   0.23470   1.000
    C50     C    0.05263   0.04340   0.20776   1.000
    C51     C    0.55263   0.04340   0.20776   1.000
    C52     C    0.49997   0.83641   0.75102   1.000
    C53     C    0.99999   0.99700   0.80439   1.000
    C54     C    0.49999   0.99700   0.80439   1.000
    C55     C    0.99996   0.75121   0.72014   1.000
    C56     C    0.10838   0.00140   0.18974   1.000
    C57     C    0.60838   0.00140   0.18974   1.000
    C58     C    0.05243   0.87638   0.76528   1.000
    C59     C    0.55243   0.87638   0.76528   1.000
    C60     C    0.05261   0.95659   0.79224   1.000
    C61     C    0.55261   0.95659   0.79224   1.000
    C62     C    0.10837   0.99858   0.81024   1.000
    C63     C    0.60837   0.99858   0.81024   1.000
    C64     C    0.05245   0.76509   0.12359   1.000
    C65     C    0.55245   0.76509   0.12359   1.000
    C66     C    0.05262   0.79209   0.04341   1.000
    C67     C    0.55262   0.79209   0.04341   1.000
    C68     C    0.10837   0.81017   0.00140   1.000
    C69     C    0.60837   0.81017   0.00140   1.000
    C70     C    0.05247   0.23492   0.87640   1.000
    C71     C    0.55247   0.23492   0.87640   1.000
    C72     C    0.05263   0.20792   0.95659   1.000
    C73     C    0.55263   0.20792   0.95659   1.000
    C74     C    0.10838   0.18985   0.99850   1.000
    C75     C    0.60838   0.18985   0.99850   1.000
    C76     C    0.19754   0.37643   0.73485   1.000
    C77     C    0.69754   0.37643   0.73485   1.000
    C78     C    0.19737   0.45663   0.70789   1.000
    C79     C    0.69737   0.45663   0.70789   1.000
    C80     C    0.14162   0.49861   0.68984   1.000
    C81     C    0.64162   0.49861   0.68984   1.000
    C82     C    0.19755   0.62358   0.26514   1.000
    C83     C    0.69755   0.62358   0.26514   1.000
    O84     O    0.10716   0.81622   0.92415   1.000
    O85     O    0.60716   0.81622   0.92415   1.000
    O86     O    0.04935   0.29177   0.71850   1.000
    O87     O    0.54935   0.29177   0.71850   1.000
    O88     O    0.15522   0.18047   0.95921   1.000
    C89     C    0.19738   0.54339   0.29210   1.000
    C90     C    0.69738   0.54339   0.29210   1.000
    C91     C    0.14163   0.50141   0.31019   1.000
    C92     C    0.64163   0.50141   0.31019   1.000
    C93     C    0.19754   0.73481   0.62362   1.000
    C94     C    0.69754   0.73481   0.62362   1.000
    C95     C    0.19737   0.70780   0.54343   1.000
    C96     C    0.69737   0.70780   0.54343   1.000
    C97     C    0.14162   0.68981   0.50140   1.000
    C98     C    0.64162   0.68981   0.50140   1.000
    C99     C    0.19755   0.26521   0.37637   1.000
    C100    C    0.69755   0.26521   0.37637   1.000
    C101    C    0.19738   0.29222   0.45655   1.000
    C102    C    0.69738   0.29222   0.45655   1.000
    C103    C    0.14162   0.31022   0.49856   1.000
    C104    C    0.64163   0.31022   0.49856   1.000
    C105    C    0.44752   0.87640   0.76527   1.000
    C106    C    0.94752   0.87640   0.76527   1.000
    C107    C    0.44737   0.95660   0.79223   1.000
    C108    C    0.94737   0.95660   0.79223   1.000
    C109    C    0.39162   0.99861   0.81025   1.000
    C110    C    0.89162   0.99861   0.81025   1.000
    C111    C    0.44756   0.12362   0.23472   1.000
    C112    C    0.94757   0.12362   0.23472   1.000
    C113    C    0.44739   0.04342   0.20775   1.000
    C114    C    0.94739   0.04342   0.20775   1.000
    C115    C    0.39163   0.00142   0.18975   1.000
    C116    C    0.89163   0.00142   0.18975   1.000
    C117    C    0.44755   0.23491   0.87640   1.000
    C118    C    0.94755   0.23491   0.87640   1.000
    C119    C    0.44738   0.20792   0.95658   1.000
    C120    C    0.94738   0.20792   0.95658   1.000
    C121    C    0.39163   0.18984   0.99856   1.000
    C122    C    0.89163   0.18984   0.99856   1.000
    C123    C    0.44753   0.76509   0.12350   1.000
    C124    C    0.94753   0.76509   0.12350   1.000
    C125    C    0.44737   0.79208   0.04340   1.000
    C126    C    0.94737   0.79208   0.04340   1.000
    C127    C    0.39162   0.81016   0.00140   1.000
    C128    C    0.89162   0.81016   0.00140   1.000
    C129    C    0.30246   0.62358   0.26514   1.000
    C130    C    0.80246   0.62358   0.26514   1.000
    C131    C    0.30263   0.54339   0.29210   1.000
    C132    C    0.80263   0.54339   0.29210   1.000
    C133    C    0.35838   0.50140   0.31014   1.000
    C134    C    0.85838   0.50140   0.31014   1.000
    C135    C    0.30245   0.37643   0.73485   1.000
    C136    C    0.80245   0.37643   0.73485   1.000
    C137    C    0.30262   0.45662   0.70789   1.000
    C138    C    0.80262   0.45662   0.70789   1.000
    C139    C    0.35837   0.49860   0.68981   1.000
    C140    C    0.85837   0.49860   0.68981   1.000
    C141    C    0.30246   0.26521   0.37637   1.000
    C142    C    0.80246   0.26521   0.37637   1.000
    C143    C    0.30262   0.29222   0.45655   1.000
    C144    C    0.80263   0.29222   0.45655   1.000
    C145    C    0.35838   0.31023   0.49856   1.000
    C146    C    0.85838   0.31023   0.49856   1.000
    C147    C    0.30245   0.73481   0.62362   1.000
    C148    C    0.80245   0.73481   0.62362   1.000
    C149    C    0.30262   0.70780   0.54343   1.000
    C150    C    0.80262   0.70780   0.54343   1.000
    C151    C    0.35837   0.68978   0.50143   1.000
    C152    C    0.85838   0.68979   0.50143   1.000
    C153    C    0.00002   0.16360   0.24897   1.000
    C154    C    0.50002   0.16360   0.24897   1.000
    C155    C    0.00001   0.00300   0.19560   1.000
    C156    C    0.50001   0.00300   0.19560   1.000
    C157    C    0.00003   0.24880   0.27985   1.000
    C158    C    0.50003   0.24880   0.27985   1.000
    C159    C    0.99997   0.83641   0.75102   1.000
    C160    C    0.49997   0.75121   0.72014   1.000
    C161    C    0.99999   0.75085   0.16357   1.000
    C162    C    0.49999   0.75085   0.16357   1.000
    C163    C    0.99999   0.80423   0.00300   1.000
    C164    C    0.50000   0.80423   0.00300   1.000
    C165    C    0.99998   0.72007   0.24879   1.000
    C166    C    0.49998   0.72007   0.24879   1.000
    C167    C    0.00001   0.24916   0.83642   1.000
    C168    C    0.50001   0.24916   0.83642   1.000
    C169    C    0.00000   0.19577   0.99698   1.000
    C170    C    0.50001   0.19577   0.99698   1.000
    C171    C    0.00002   0.27994   0.75120   1.000
    C172    C    0.50002   0.27994   0.75120   1.000
    C173    C    0.24999   0.33644   0.74900   1.000
    C174    C    0.74999   0.33644   0.74900   1.000
    C175    C    0.25000   0.49703   0.69576   1.000
    C176    C    0.75000   0.49703   0.69576   1.000
    C177    C    0.24999   0.25122   0.77988   1.000
    C178    C    0.74999   0.25122   0.77988   1.000
    C179    C    0.25001   0.66357   0.25090   1.000
    C180    C    0.75001   0.66357   0.25090   1.000
    C181    C    0.25000   0.50298   0.30423   1.000
    C182    C    0.75000   0.50298   0.30423   1.000
    C183    C    0.25001   0.74879   0.22010   1.000
    C184    C    0.75001   0.74879   0.22013   1.000
    C185    C    0.25000   0.74906   0.66360   1.000
    C186    C    0.75000   0.74906   0.66360   1.000
    C187    C    0.25000   0.69564   0.50303   1.000
    C188    C    0.75000   0.69563   0.50303   1.000
    C189    C    0.25000   0.77984   0.74883   1.000
    C190    C    0.75000   0.77984   0.74883   1.000
    C191    C    0.25001   0.25096   0.33639   1.000
    C192    C    0.75001   0.25096   0.33639   1.000
    C193    C    0.25000   0.30440   0.49695   1.000
    C194    C    0.75000   0.30439   0.49695   1.000
    C195    C    0.25001   0.22016   0.25116   1.000
    C196    C    0.75001   0.22016   0.25116   1.000
    O197    O    0.04937   0.28148   0.29171   1.000
    O198    O    0.54937   0.28148   0.29171   1.000
    O199    O    0.15524   0.04074   0.18043   1.000
    O200    O    0.65524   0.04074   0.18043   1.000
    O201    O    0.10716   0.92413   0.18377   1.000
    O202    O    0.60716   0.92413   0.18377   1.000
    O203    O    0.04930   0.71851   0.70828   1.000
    O204    O    0.54930   0.71851   0.70828   1.000
    O205    O    0.15522   0.95924   0.81955   1.000
    O206    O    0.65522   0.95924   0.81955   1.000
    O207    O    0.10716   0.07585   0.81620   1.000
    O208    O    0.60716   0.07585   0.81620   1.000
    O209    O    0.04932   0.70823   0.28149   1.000
    O210    O    0.54932   0.70823   0.28149   1.000
    O211    O    0.15521   0.81952   0.04079   1.000
    O212    O    0.65521   0.81952   0.04079   1.000
    O213    O    0.65522   0.18047   0.95921   1.000
    O214    O    0.10716   0.18379   0.07580   1.000
    O215    O    0.60716   0.18379   0.07580   1.000
    O216    O    0.20065   0.21853   0.79174   1.000
    O217    O    0.70065   0.21853   0.79174   1.000
    O218    O    0.09478   0.45925   0.68040   1.000
    O219    O    0.59478   0.45925   0.68045   1.000
    O220    O    0.14284   0.57588   0.68379   1.000
    O221    O    0.64284   0.57588   0.68370   1.000
    O222    O    0.20068   0.78147   0.20824   1.000
    O223    O    0.70068   0.78147   0.20824   1.000
    O224    O    0.09478   0.54077   0.31950   1.000
    O225    O    0.59478   0.54077   0.31952   1.000
    O226    O    0.14284   0.42414   0.31619   1.000
    O227    O    0.64284   0.42414   0.31619   1.000
    O228    O    0.20066   0.79179   0.78148   1.000
    O229    O    0.70066   0.79178   0.78148   1.000
    O230    O    0.09477   0.68045   0.54078   1.000
    O231    O    0.59477   0.68045   0.54078   1.000
    O232    O    0.14284   0.68375   0.42415   1.000
    O233    O    0.64284   0.68375   0.42415   1.000
    O234    O    0.20067   0.20822   0.21850   1.000
    O235    O    0.70067   0.20822   0.21850   1.000
    O236    O    0.09477   0.31955   0.45921   1.000
    O237    O    0.59478   0.31955   0.45921   1.000
    O238    O    0.14285   0.31626   0.57583   1.000
    O239    O    0.64285   0.31626   0.57583   1.000
    O240    O    0.45062   0.71853   0.70828   1.000
    O241    O    0.95063   0.71853   0.70828   1.000
    O242    O    0.34476   0.95927   0.81956   1.000
    O243    O    0.84476   0.95927   0.81956   1.000
    O244    O    0.39284   0.07588   0.81621   1.000
    O245    O    0.89284   0.07588   0.81621   1.000
    O246    O    0.45070   0.28150   0.29171   1.000
    O247    O    0.95070   0.28150   0.29171   1.000
    O248    O    0.34478   0.04077   0.18040   1.000
    O249    O    0.84478   0.04077   0.18043   1.000
    O250    O    0.39284   0.92416   0.18375   1.000
    O251    O    0.89284   0.92416   0.18375   1.000
    O252    O    0.45068   0.29177   0.71850   1.000
    O253    O    0.95068   0.29177   0.71850   1.000
    O254    O    0.34479   0.18049   0.95920   1.000
    O255    O    0.84479   0.18049   0.95920   1.000
    O256    O    0.39284   0.18379   0.07583   1.000
    O257    O    0.89284   0.18379   0.07583   1.000
    O258    O    0.45065   0.70823   0.28149   1.000
    O259    O    0.95065   0.70823   0.28149   1.000
    O260    O    0.34478   0.81953   0.04078   1.000
    O261    O    0.84478   0.81953   0.04078   1.000
    O262    O    0.39284   0.81622   0.92410   1.000
    O263    O    0.89284   0.81622   0.92414   1.000
    O264    O    0.29935   0.78147   0.20824   1.000
    O265    O    0.79935   0.78147   0.20824   1.000
    O266    O    0.40522   0.54076   0.31954   1.000
    O267    O    0.90522   0.54076   0.31954   1.000
    O268    O    0.35716   0.42413   0.31621   1.000
    O269    O    0.85716   0.42413   0.31621   1.000
    O270    O    0.29932   0.21853   0.79174   1.000
    O271    O    0.79932   0.21853   0.79174   1.000
    O272    O    0.40522   0.45924   0.68047   1.000
    O273    O    0.90522   0.45924   0.68047   1.000
    O274    O    0.35716   0.57587   0.68379   1.000
    O275    O    0.85716   0.57587   0.68379   1.000
    O276    O    0.29935   0.20823   0.21850   1.000
    O277    O    0.79935   0.20823   0.21850   1.000
    O278    O    0.40523   0.31955   0.45920   1.000
    O279    O    0.90523   0.31955   0.45920   1.000
    O280    O    0.35716   0.31625   0.57580   1.000
    O281    O    0.85716   0.31626   0.57580   1.000
    O282    O    0.29933   0.79179   0.78148   1.000
    O283    O    0.79933   0.79179   0.78148   1.000
    O284    O    0.40522   0.68046   0.54077   1.000
    O285    O    0.90522   0.68046   0.54077   1.000
    O286    O    0.35715   0.68376   0.42415   1.000
    O287    O    0.85715   0.68376   0.42415   1.000
loop_
    _geom_bond_atom_site_label_1
    _geom_bond_atom_site_label_2
    _geom_bond_distance
    _geom_bond_site_symmetry_2
    _ccdc_geom_bond_type
    C68    O211      1.27145      .   S
    C68    C66       1.49238      .   S
    C68    O84       1.28288  1_554   S
    C69    O212      1.27145      .   S
    C69    C67       1.49238      .   S
    C69    O85       1.28288  1_554   S
    C128   O261      1.27138      .   S
    C128   C126      1.49227      .   S
    C128   O263      1.28307  1_554   S
    C127   O260      1.27138      .   S
    C127   C125      1.49227      .   S
    C127   O262      1.28373  1_554   S
    C164   C125      1.40046      .   S
    C164   C67       1.40051      .   S
    C164   H37       1.08817  1_554   S
    C163   C126      1.40044      .   S
    C163   C66       1.40049  1_655   S
    C163   H36       1.08816  1_554   S
    C125   C123      1.39916      .   S
    C126   C124      1.39916      .   S
    C67    C65       1.40041      .   S
    C66    C64       1.40041      .   S
    H38    C169      1.08832  1_554   S
    H39    C170      1.08832  1_554   S
    O215   C75       1.28373  1_554   S
    O214   C74       1.28372  1_554   S
    O257   C122      1.28321  1_554   S
    O256   C121      1.28321  1_554   S
    C124   H23       1.08865      .   S
    C124   C161      1.39988      .   S
    C123   H22       1.08847      .   S
    C123   C162      1.39992      .   S
    C65    H5        1.08800      .   S
    C65    C162      1.39926      .   S
    C64    H4        1.08798      .   S
    C64    C161      1.39928  1_455   S
    C162   C166      1.49982      .   S
    C161   C165      1.49982      .   S
    H33    C156      1.08797  1_565   S
    H32    C155      1.08799  1_565   S
    O248   C115      1.27130      .   S
    O199   C56       1.27125      .   S
    O200   C57       1.27125      .   S
    O249   C116      1.27124      .   S
    O250   C115      1.28299  1_565   S
    O251   C116      1.28298  1_565   S
    O201   C56       1.28298  1_565   S
    O202   C57       1.28298  1_565   S
    C57    C51       1.49210      .   S
    C56    C50       1.49208      .   S
    C116   C114      1.49213      .   S
    C115   C113      1.49211      .   S
    C155   C114      1.40039  1_455   S
    C155   C50       1.40044      .   S
    C156   C113      1.40043      .   S
    C156   C51       1.40043      .   S
    C114   C112      1.40046      .   S
    C113   C111      1.40046      .   S
    C51    C49       1.40029      .   S
    C50    C48       1.40030      .   S
    O265   C184      1.27538      .   S
    O264   C183      1.27531      .   S
    O222   C183      1.27530      .   S
    O223   C184      1.27537      .   S
    O235   C196      1.27534      .   S
    O276   C195      1.27538      .   S
    O234   C195      1.27534      .   S
    O277   C196      1.27536      .   S
    C183   C179      1.50008      .   S
    C184   C180      1.49991      .   S
    C48    H0        1.08803      .   S
    C48    C153      1.39927      .   S
    C49    H1        1.08804      .   S
    C49    C154      1.39928      .   S
    C111   H18       1.08795      .   S
    C111   C154      1.39921      .   S
    C112   H19       1.08795      .   S
    C112   C153      1.39917  1_655   S
    C166   O210      1.27539      .   S
    C166   O258      1.27538      .   S
    C165   O259      1.27535      .   S
    C165   O209      1.27539  1_655   S
    C153   C157      1.49988      .   S
    C154   C158      1.49988      .   S
    C180   C130      1.39924      .   S
    C180   C83       1.39925      .   S
    C179   C129      1.39924      .   S
    C179   C82       1.39923      .   S
    C195   C191      1.49990      .   S
    C196   C192      1.49990      .   S
    H24    C129      1.08797      .   S
    H25    C130      1.08797      .   S
    H10    C82       1.08799      .   S
    H11    C83       1.08796      .   S
    C130   C132      1.40046      .   S
    C129   C131      1.40044      .   S
    C82    C89       1.40044      .   S
    C83    C90       1.40044      .   S
    C157   O197      1.27536      .   S
    C157   O247      1.27530  1_455   S
    C158   O198      1.27536      .   S
    C158   O246      1.27534      .   S
    C90    C182      1.40044      .   S
    C90    C92       1.49219      .   S
    C132   C182      1.40044      .   S
    C132   C134      1.49218      .   S
    C89    C181      1.40045      .   S
    C89    C91       1.49217      .   S
    C131   C181      1.40044      .   S
    C131   C133      1.49219      .   S
    C182   H43       1.08817      .   S
    C181   H42       1.08819      .   S
    C134   O269      1.28319      .   S
    C134   O267      1.27123      .   S
    C133   O268      1.28319      .   S
    C133   O266      1.27121      .   S
    C92    O227      1.28316      .   S
    C92    O225      1.27123      .   S
    C91    O226      1.28316      .   S
    C91    O224      1.27121      .   S
    C191   C141      1.39918      .   S
    C191   C99       1.39922      .   S
    C192   C100      1.39920      .   S
    C192   C142      1.39920      .   S
    H14    C99       1.08802      .   S
    H15    C100      1.08802      .   S
    H28    C141      1.08796      .   S
    H29    C142      1.08796      .   S
    C100   C102      1.40036      .   S
    C142   C144      1.40034      .   S
    C141   C143      1.40034      .   S
    C99    C101      1.40036      .   S
    O287   C152      1.28332      .   S
    O286   C151      1.28331      .   S
    O232   C97       1.28287      .   S
    O233   C98       1.28286      .   S
    H45    C188      1.08891      .   S
    H44    C187      1.08890      .   S
    C101   C193      1.40044      .   S
    C101   C103      1.49212      .   S
    C143   C193      1.40045      .   S
    C143   C145      1.49211      .   S
    C144   C194      1.40045      .   S
    C144   C146      1.49210      .   S
    C102   C194      1.40044      .   S
    C102   C104      1.49212      .   S
    O278   C145      1.27136      .   S
    O279   C146      1.27136      .   S
    O237   C104      1.27126      .   S
    O236   C103      1.27127      .   S
    C194   H47       1.08768      .   S
    C193   H46       1.08768      .   S
    C104   O239      1.28317      .   S
    C103   O238      1.28318      .   S
    C146   O281      1.28266      .   S
    C145   O280      1.28265      .   S
    C98    O231      1.27150      .   S
    C98    C96       1.49226      .   S
    C97    O230      1.27147      .   S
    C97    C95       1.49228      .   S
    C152   O285      1.27119      .   S
    C152   C150      1.49206      .   S
    C151   O284      1.27118      .   S
    C151   C149      1.49207      .   S
    C188   C150      1.40045      .   S
    C188   C96       1.40044      .   S
    C187   C149      1.40043      .   S
    C187   C95       1.40044      .   S
    C149   C147      1.40048      .   S
    C150   C148      1.40049      .   S
    C96    C94       1.40048      .   S
    C95    C93       1.40049      .   S
    C93    H12       1.08794      .   S
    C93    C185      1.39921      .   S
    C148   H31       1.08743      .   S
    C148   C186      1.39920      .   S
    C147   H30       1.08791      .   S
    C147   C185      1.39920      .   S
    C94    H13       1.08796      .   S
    C94    C186      1.39919      .   S
    C186   C190      1.49982      .   S
    C185   C189      1.49980      .   S
    H41    C176      1.08817      .   S
    H40    C175      1.08817      .   S
    O218   C80       1.27133      .   S
    O219   C81       1.27123      .   S
    O272   C139      1.27124      .   S
    O273   C140      1.27124      .   S
    O221   C81       1.28330      .   S
    O274   C139      1.28316      .   S
    O275   C140      1.28316      .   S
    O220   C80       1.28318      .   S
    C139   C137      1.49217      .   S
    C140   C138      1.49215      .   S
    C80    C78       1.49216      .   S
    C81    C79       1.49216      .   S
    C176   C138      1.40046      .   S
    C176   C79       1.40044      .   S
    C175   C78       1.40046      .   S
    C175   C137      1.40044      .   S
    C78    C76       1.40046      .   S
    C137   C135      1.40044      .   S
    C138   C136      1.40044      .   S
    C79    C77       1.40048      .   S
    O240   C160      1.27538      .   S
    O241   C55       1.27534      .   S
    O203   C55       1.27533  1_455   S
    O204   C160      1.27535      .   S
    O87    C172      1.27537      .   S
    O86    C171      1.27539      .   S
    O252   C172      1.27539      .   S
    O253   C171      1.27534  1_655   S
    C55    C159      1.49985      .   S
    C160   C52       1.49985      .   S
    C76    H8        1.08797      .   S
    C76    C173      1.39901      .   S
    C136   H27       1.08798      .   S
    C136   C174      1.39900      .   S
    C135   H26       1.08798      .   S
    C135   C173      1.39898      .   S
    C77    H9        1.08797      .   S
    C77    C174      1.39898      .   S
    C189   O282      1.27532      .   S
    C189   O228      1.27533      .   S
    C190   O229      1.27532      .   S
    C190   O283      1.27532      .   S
    C173   C177      1.50050      .   S
    C174   C178      1.50050      .   S
    C52    C105      1.39923      .   S
    C52    C59       1.39923      .   S
    C159   C106      1.39919      .   S
    C159   C58       1.39923  1_655   S
    C172   C168      1.49983      .   S
    C171   C167      1.49984      .   S
    H17    C106      1.08799      .   S
    H16    C105      1.08797      .   S
    H2     C58       1.08799      .   S
    H3     C59       1.08798      .   S
    C105   C107      1.40041      .   S
    C106   C108      1.40041      .   S
    C59    C61       1.40042      .   S
    C58    C60       1.40041      .   S
    C178   O271      1.27533      .   S
    C178   O217      1.27535      .   S
    C177   O216      1.27536      .   S
    C177   O270      1.27533      .   S
    C107   C54       1.40043      .   S
    C107   C109      1.49206      .   S
    C108   C53       1.40039      .   S
    C108   C110      1.49206      .   S
    C60    C53       1.40044  1_455   S
    C60    C62       1.49213      .   S
    C61    C54       1.40043      .   S
    C61    C63       1.49210      .   S
    C54    H35       1.08797  1_565   S
    C53    H34       1.08797  1_565   S
    C63    O208      1.28294  1_565   S
    C63    O206      1.27124      .   S
    C62    O207      1.28294  1_565   S
    C62    O205      1.27122      .   S
    C110   O245      1.28296  1_565   S
    C110   O243      1.27126      .   S
    C109   O244      1.28296  1_565   S
    C109   O242      1.27126      .   S
    C167   C118      1.39924  1_455   S
    C167   C70       1.39920      .   S
    C168   C117      1.39926      .   S
    C168   C71       1.39922      .   S
    H20    C117      1.08800      .   S
    H21    C118      1.08800      .   S
    H7     C71       1.08793      .   S
    H6     C70       1.08793      .   S
    C118   C120      1.40040      .   S
    C117   C119      1.40040      .   S
    C70    C72       1.40057      .   S
    C71    C73       1.40058      .   S
    C119   C170      1.40043      .   S
    C119   C121      1.49214      .   S
    C120   C169      1.40039  1_655   S
    C120   C122      1.49216      .   S
    C73    C170      1.40040      .   S
    C73    C75       1.49155      .   S
    C72    C169      1.40041      .   S
    C72    C74       1.49156      .   S
    O254   C121      1.27121      .   S
    O255   C122      1.27119      .   S
    O88    C74       1.27063      .   S
    O213   C75       1.27063      .   S
