# CIF file generated by openbabel 2.4.90, see http://openbabel.sf.net
data_I
_chemical_name_common ''
_cell_length_a 23.068
_cell_length_b 16.552
_cell_length_c 16.552
_cell_angle_alpha 90.011
_cell_angle_beta 89.999
_cell_angle_gamma 90.002
_space_group_name_H-M_alt 'P 1'
_space_group_name_Hall 'P 1'
loop_
    _symmetry_equiv_pos_as_xyz
    x,y,z
loop_
    _atom_site_label
    _atom_site_type_symbol
    _atom_site_fract_x
    _atom_site_fract_y
    _atom_site_fract_z
    _atom_site_occupancy
    Zn0     Zn   0.56988   0.37802   0.35726   1.000
    Zn1     Zn   0.06987   0.62199   0.64270   1.000
    Zn2     Zn   0.56987   0.62199   0.64270   1.000
    Zn3     Zn   0.06987   0.64273   0.37802   1.000
    Zn4     Zn   0.56988   0.64273   0.37802   1.000
    Zn5     Zn   0.06988   0.35728   0.62196   1.000
    Zn6     Zn   0.56988   0.35728   0.62196   1.000
    Zn7     Zn   0.18013   0.12199   0.85725   1.000
    Zn8     Zn   0.68012   0.12199   0.85725   1.000
    Zn9     Zn   0.18013   0.87801   0.14274   1.000
    Zn10    Zn   0.68013   0.87801   0.14274   1.000
    Zn11    Zn   0.18012   0.85728   0.87804   1.000
    Zn12    Zn   0.68012   0.85728   0.87804   1.000
    Zn13    Zn   0.18012   0.14272   0.12196   1.000
    Zn14    Zn   0.68012   0.14272   0.12196   1.000
    Zn15    Zn   0.43012   0.62199   0.64273   1.000
    Zn16    Zn   0.93012   0.62199   0.64273   1.000
    Zn17    Zn   0.43012   0.37802   0.35720   1.000
    Zn18    Zn   0.93013   0.37802   0.35720   1.000
    Zn19    Zn   0.43012   0.35728   0.62197   1.000
    Zn20    Zn   0.93013   0.35728   0.62197   1.000
    Zn21    Zn   0.43012   0.64273   0.37803   1.000
    Zn22    Zn   0.93012   0.64273   0.37803   1.000
    Zn23    Zn   0.31987   0.87802   0.14270   1.000
    Zn24    Zn   0.81988   0.87802   0.14270   1.000
    Zn25    Zn   0.31987   0.12200   0.85725   1.000
    Zn26    Zn   0.81987   0.12200   0.85725   1.000
    Zn27    Zn   0.31988   0.14272   0.12195   1.000
    Zn28    Zn   0.81988   0.14272   0.12195   1.000
    Zn29    Zn   0.31988   0.85729   0.87803   1.000
    Zn30    Zn   0.81988   0.85729   0.87803   1.000
    Zn31    Zn   0.06988   0.37802   0.35726   1.000
    H32     H    0.00000   0.48687   0.40220   1.000
    H33     H    0.50000   0.48687   0.40220   1.000
    H34     H    1.00000   0.51314   0.59774   1.000
    H35     H    0.50000   0.51314   0.59774   1.000
    H36     H    1.00000   0.59775   0.48687   1.000
    H37     H    0.50000   0.59775   0.48687   1.000
    H38     H    0.00000   0.40226   0.51310   1.000
    H39     H    0.50000   0.40226   0.51310   1.000
    H40     H    0.25000   0.01314   0.90222   1.000
    H41     H    0.75000   0.01314   0.90222   1.000
    H42     H    0.25000   0.98686   0.09777   1.000
    H43     H    0.75000   0.98686   0.09777   1.000
    H44     H    0.25000   0.90229   0.98689   1.000
    H45     H    0.75000   0.90229   0.98689   1.000
    H46     H    0.25000   0.09772   0.01310   1.000
    H47     H    0.75000   0.09772   0.01310   1.000
    O48     O    0.00000   0.42678   0.40300   1.000
    O49     O    0.50000   0.42678   0.40300   1.000
    O50     O    1.00000   0.57322   0.59699   1.000
    O51     O    0.50000   0.57322   0.59699   1.000
    O52     O    1.00000   0.59700   0.42678   1.000
    O53     O    0.50000   0.59700   0.42678   1.000
    O54     O    0.00000   0.40301   0.57321   1.000
    O55     O    0.50000   0.40301   0.57321   1.000
    O56     O    0.25000   0.07323   0.90299   1.000
    O57     O    0.75000   0.07323   0.90299   1.000
    O58     O    0.25000   0.92678   0.09000   1.000
    O59     O    0.75000   0.92678   0.09000   1.000
    O60     O    0.25000   0.90302   0.92680   1.000
    O61     O    0.75000   0.90302   0.92680   1.000
    O62     O    0.25000   0.09699   0.07319   1.000
    O63     O    0.75000   0.09699   0.07319   1.000
loop_
    _geom_bond_atom_site_label_1
    _geom_bond_atom_site_label_2
    _geom_bond_distance
    _geom_bond_site_symmetry_2
    _ccdc_geom_bond_type
    H46    O62       0.99469      .   S
    H47    O63       0.99469      .   S
    O62    Zn27      1.95513      .   S
    O63    Zn28      1.95513      .   S
    O58    H42       1.00282      .   S
    O58    Zn23      2.00267      .   S
    O59    H43       1.00282      .   S
    O59    Zn24      2.00267      .   S
    Zn0    O49       1.95515      .   S
    Zn31   O48       1.95515      .   S
    Zn21   O53       1.95518      .   S
    Zn22   O52       1.95513      .   S
    H33    O49       0.99467      .   S
    H32    O48       0.99467      .   S
    O53    H37       0.99468      .   S
    O52    H36       0.99468      .   S
    H38    O54       0.99502      .   S
    H39    O55       0.99502      .   S
    O55    Zn6       1.95517      .   S
    O54    Zn20      1.95515  1_455   S
    O51    H35       0.99466      .   S
    O51    Zn2       1.95499      .   S
    O50    H34       0.99466      .   S
    O50    Zn1       1.95499  1_655   S
    Zn26   O57       1.95522      .   S
    Zn7    O56       1.95521      .   S
    Zn11   O60       1.95513      .   S
    Zn12   O61       1.95511      .   S
    H40    O56       0.99464      .   S
    H41    O57       0.99464      .   S
    O61    H45       0.99469      .   S
    O60    H44       0.99469      .   S
    O48    Zn18      1.95553  1_455   S
    O49    Zn17      1.95557      .   S
    O50    Zn16      1.95512      .   S
    O51    Zn15      1.95516      .   S
    O52    Zn3       1.95519  1_655   S
    O53    Zn4       1.95519      .   S
    O54    Zn5       1.95517      .   S
    O55    Zn19      1.95519      .   S
    O56    Zn25      1.95522      .   S
    O57    Zn8       1.95523      .   S
    O58    Zn9       2.00293      .   S
    O59    Zn10      2.00295      .   S
    O60    Zn29      1.95520      .   S
    O61    Zn30      1.95522      .   S
    O62    Zn13      1.95521      .   S
    O63    Zn14      1.95522      .   S
