# CIF file generated by openbabel 2.4.90, see http://openbabel.sf.net
data_I
_chemical_name_common ''
_cell_length_a 23.068
_cell_length_b 16.552
_cell_length_c 16.552
_cell_angle_alpha 90.011
_cell_angle_beta 89.999
_cell_angle_gamma 90.002
_space_group_name_H-M_alt 'P 1'
_space_group_name_Hall 'P 1'
loop_
    _symmetry_equiv_pos_as_xyz
    x,y,z
loop_
    _atom_site_label
    _atom_site_type_symbol
    _atom_site_fract_x
    _atom_site_fract_y
    _atom_site_fract_z
    _atom_site_occupancy
    N0      N    0.25000   0.58313   0.27952   1.000
    N1      N    0.75001   0.58313   0.27952   1.000
    N2      N    0.75000   0.72043   0.58315   1.000
    N3      N    0.99999   0.77951   0.08313   1.000
    N4      N    0.49999   0.77951   0.08313   1.000
    N5      N    0.99998   0.91686   0.77961   1.000
    N6      N    0.49998   0.91686   0.77961   1.000
    N7      N    0.25000   0.27959   0.41683   1.000
    N8      N    0.75001   0.27959   0.41683   1.000
    N9      N    0.25000   0.72043   0.58315   1.000
    N10     N    0.74999   0.41688   0.72046   1.000
    N11     N    0.24999   0.41688   0.72046   1.000
    N12     N    0.00001   0.22050   0.91684   1.000
    N13     N    0.50001   0.22050   0.91684   1.000
    N14     N    0.50002   0.08314   0.22038   1.000
    N15     N    0.00002   0.08314   0.22038   1.000
    Zr16    Zr   0.25000   0.87997   0.91744   1.000
    O17     O    0.33307   0.89627   0.86582   1.000
    O18     O    0.33909   0.84405   0.95477   1.000
    O19     O    0.16091   0.84405   0.95478   1.000
    O20     O    0.16691   0.89627   0.86582   1.000
    Zr21    Zr   0.25000   0.08259   0.87993   1.000
    O22     O    0.33908   0.04524   0.84405   1.000
    O23     O    0.33308   0.13423   0.89623   1.000
    O24     O    0.16692   0.13423   0.89623   1.000
    O25     O    0.16091   0.04524   0.84405   1.000
    Zr26    Zr   0.00000   0.37996   0.58256   1.000
    O27     O    0.08308   0.39627   0.63419   1.000
    O28     O    0.08909   0.34407   0.54521   1.000
    O29     O    0.91091   0.34407   0.54521   1.000
    O30     O    0.91692   0.39626   0.63420   1.000
    Zr31    Zr   0.75000   0.91742   0.11830   1.000
    O32     O    0.66692   0.86578   0.10287   1.000
    O33     O    0.66092   0.95476   0.15506   1.000
    O34     O    0.83308   0.86578   0.10287   1.000
    O35     O    0.83909   0.95477   0.15505   1.000
    Zr36    Zr   0.00000   0.41742   0.37992   1.000
    O37     O    0.08909   0.45476   0.34402   1.000
    O38     O    0.08308   0.36581   0.39622   1.000
    O39     O    0.91091   0.45476   0.34401   1.000
    O40     O    0.91692   0.36581   0.39621   1.000
    Zr41    Zr   0.50000   0.37996   0.58256   1.000
    O42     O    0.41692   0.39626   0.63420   1.000
    O43     O    0.41091   0.34407   0.54521   1.000
    O44     O    0.58909   0.34407   0.54521   1.000
    O45     O    0.58308   0.39627   0.63420   1.000
    Zr46    Zr   0.25000   0.91742   0.11830   1.000
    O47     O    0.33909   0.95477   0.15505   1.000
    O48     O    0.33308   0.86578   0.10287   1.000
    O49     O    0.16092   0.95476   0.15506   1.000
    O50     O    0.16692   0.86578   0.10288   1.000
    Zr51    Zr   0.75000   0.12004   0.08255   1.000
    O52     O    0.83309   0.10374   0.13417   1.000
    O53     O    0.83909   0.15596   0.04521   1.000
    O54     O    0.66091   0.15596   0.04521   1.000
    O55     O    0.66693   0.10374   0.13417   1.000
    Zr56    Zr   0.25000   0.12004   0.08255   1.000
    O57     O    0.16692   0.10374   0.13417   1.000
    O58     O    0.16091   0.15596   0.04521   1.000
    O59     O    0.33909   0.15596   0.04521   1.000
    O60     O    0.33309   0.10374   0.13416   1.000
    Zr61    Zr   0.50000   0.41742   0.37992   1.000
    O62     O    0.41091   0.45476   0.34401   1.000
    O63     O    0.41692   0.36581   0.39621   1.000
    O64     O    0.58909   0.45476   0.34402   1.000
    O65     O    0.58308   0.36581   0.39622   1.000
    Zr66    Zr   1.00000   0.62005   0.41743   1.000
    O67     O    0.91692   0.60374   0.36579   1.000
    O68     O    0.91091   0.65594   0.45477   1.000
    O69     O    0.08909   0.65594   0.45477   1.000
    O70     O    0.08308   0.60374   0.36578   1.000
    Zr71    Zr   0.50000   0.62005   0.41743   1.000
    O72     O    0.41692   0.60374   0.36579   1.000
    O73     O    0.41091   0.65594   0.45477   1.000
    O74     O    0.58308   0.60374   0.36579   1.000
    O75     O    0.58909   0.65594   0.45477   1.000
    Zr76    Zr   0.50000   0.58258   0.62004   1.000
    O77     O    0.58308   0.63420   0.60374   1.000
    O78     O    0.58909   0.54525   0.65593   1.000
    O79     O    0.41692   0.63420   0.60375   1.000
    O80     O    0.41091   0.54524   0.65595   1.000
    Zr81    Zr   0.75000   0.08259   0.87993   1.000
    O82     O    0.66091   0.04524   0.84405   1.000
    O83     O    0.66692   0.13423   0.89623   1.000
    O84     O    0.83308   0.13423   0.89623   1.000
    O85     O    0.83908   0.04524   0.84405   1.000
    Zr86    Zr   1.00000   0.58258   0.62004   1.000
    O87     O    0.91692   0.63420   0.60374   1.000
    O88     O    0.91091   0.54524   0.65595   1.000
    O89     O    0.08308   0.63420   0.60374   1.000
    O90     O    0.08909   0.54525   0.65595   1.000
    Zr91    Zr   0.75000   0.87997   0.91744   1.000
    O92     O    0.66691   0.89626   0.86582   1.000
    O93     O    0.66091   0.84405   0.95478   1.000
    O94     O    0.83909   0.84405   0.95477   1.000
    O95     O    0.83307   0.89627   0.86582   1.000
    O96     O    0.25000   0.17378   0.18804   1.000
    O97     O    0.25000   0.18808   0.82620   1.000
    O98     O    0.00001   0.31194   0.32617   1.000
    O99     O    0.99999   0.67377   0.31193   1.000
    O100    O    0.25000   0.82623   0.81195   1.000
    O101    O    0.49999   0.68807   0.67380   1.000
    O102    O    0.50001   0.32623   0.68805   1.000
    O103    O    0.50000   0.67377   0.31193   1.000
    O104    O    0.75000   0.18808   0.82620   1.000
    O105    O    0.75000   0.81193   0.17290   1.000
    O106    O    0.25000   0.81193   0.17290   1.000
    O107    O    0.75000   0.17378   0.18804   1.000
    O108    O    0.50001   0.31194   0.32617   1.000
    O109    O    0.75000   0.82623   0.81195   1.000
    O110    O    0.99999   0.68807   0.67380   1.000
    O111    O    0.00000   0.32623   0.68805   1.000
loop_
    _geom_bond_atom_site_label_1
    _geom_bond_atom_site_label_2
    _geom_bond_distance
    _geom_bond_site_symmetry_2
    _ccdc_geom_bond_type
    Zr16   O17       2.11551      .   S
    N6     O17       4.12028      .   S
    Zr16   O18       2.22686      .   S
    N4     O18       4.40840  1_554   S
    Zr16   O19       2.22691      .   S
    N3     O19       4.40841  1_654   S
    Zr16   O20       2.11576      .   S
    N5     O20       4.12082  1_655   S
    Zr21   O22       2.22660      .   S
    N6     O22       4.40781  1_565   S
    Zr21   O23       2.11581      .   S
    N13    O23       4.12095      .   S
    Zr21   O24       2.11571      .   S
    N12    O24       4.12075      .   S
    Zr21   O25       2.22679      .   S
    N5     O25       4.40814  1_665   S
    Zr26   O27       2.11567      .   S
    N11    O27       4.12076      .   S
    Zr26   O28       2.22681      .   S
    N7     O28       4.40821      .   S
    Zr26   O29       2.22673  1_455   S
    N8     O29       4.40807      .   S
    Zr26   O30       2.11579  1_455   S
    N10    O30       4.12085      .   S
    Zr31   O32       2.11401      .   S
    N4     O32       4.11977      .   S
    Zr31   O33       2.23052      .   S
    N14    O33       4.41135  1_545   S
    Zr31   O34       2.11393      .   S
    N3     O34       4.11959      .   S
    Zr31   O35       2.23066      .   S
    N15    O35       4.41169  1_445   S
    Zr36   O37       2.22677      .   S
    N0     O37       4.40824      .   S
    Zr36   O38       2.11569      .   S
    N7     O38       4.12068      .   S
    Zr36   O39       2.22683  1_455   S
    N1     O39       4.40827      .   S
    Zr36   O40       2.11557  1_455   S
    N8     O40       4.12051      .   S
    Zr41   O42       2.11581      .   S
    N11    O42       4.12089      .   S
    Zr41   O43       2.22676      .   S
    N7     O43       4.40810      .   S
    Zr41   O44       2.22680      .   S
    N8     O44       4.40821      .   S
    Zr41   O45       2.11571      .   S
    N10    O45       4.12070      .   S
    Zr46   O47       2.23066      .   S
    N14    O47       4.41170  1_545   S
    Zr46   O48       2.11394      .   S
    N4     O48       4.11961      .   S
    Zr46   O49       2.23052      .   S
    N15    O49       4.41135  1_545   S
    Zr46   O50       2.11400      .   S
    N3     O50       4.11976  1_655   S
    Zr51   O52       2.11573      .   S
    N15    O52       4.12077  1_455   S
    Zr51   O53       2.22694      .   S
    N12    O53       4.40849  1_456   S
    Zr51   O54       2.22693      .   S
    N13    O54       4.40841  1_556   S
    Zr51   O55       2.11552      .   S
    N14    O55       4.12029      .   S
    Zr56   O57       2.11552      .   S
    N15    O57       4.12029      .   S
    Zr56   O58       2.22693      .   S
    N12    O58       4.40840  1_556   S
    Zr56   O59       2.22694      .   S
    N13    O59       4.40851  1_556   S
    Zr56   O60       2.11571      .   S
    N14    O60       4.12080      .   S
    Zr61   O62       2.22684      .   S
    N0     O62       4.40829      .   S
    Zr61   O63       2.11559      .   S
    N7     O63       4.12052      .   S
    Zr61   O64       2.22677      .   S
    N1     O64       4.40823      .   S
    Zr61   O65       2.11569      .   S
    N8     O65       4.12068      .   S
    Zr66   O67       2.11569      .   S
    N1     O67       4.12073      .   S
    Zr66   O68       2.22678      .   S
    N2     O68       4.40812      .   S
    Zr66   O69       2.22675  1_655   S
    N9     O69       4.40813      .   S
    Zr66   O70       2.11582  1_655   S
    N0     O70       4.12089      .   S
    Zr71   O72       2.11571      .   S
    N0     O72       4.12075      .   S
    Zr71   O73       2.22679      .   S
    N9     O73       4.40815      .   S
    Zr71   O74       2.11580      .   S
    N1     O74       4.12089      .   S
    Zr71   O75       2.22674      .   S
    N2     O75       4.40810      .   S
    Zr76   O77       2.11561      .   S
    N2     O77       4.12055      .   S
    Zr76   O78       2.22680      .   S
    N10    O78       4.40840      .   S
    Zr76   O79       2.11567      .   S
    N9     O79       4.12068      .   S
    Zr76   O80       2.22684      .   S
    N11    O80       4.40828      .   S
    Zr81   O82       2.22679      .   S
    N6     O82       4.40814  1_565   S
    Zr81   O83       2.11571      .   S
    N13    O83       4.12076      .   S
    Zr81   O84       2.11581      .   S
    N12    O84       4.12093  1_455   S
    Zr81   O85       2.22659      .   S
    N5     O85       4.40779  1_565   S
    Zr86   O87       2.11566      .   S
    N2     O87       4.12067      .   S
    Zr86   O88       2.22682      .   S
    N10    O88       4.40826      .   S
    Zr86   O89       2.11561  1_655   S
    N9     O89       4.12056      .   S
    Zr86   O90       2.22685  1_655   S
    N11    O90       4.40836      .   S
    Zr91   O92       2.11576      .   S
    N6     O92       4.12083      .   S
    Zr91   O93       2.22691      .   S
    N4     O93       4.40840  1_554   S
    Zr91   O94       2.22688      .   S
    N3     O94       4.40836  1_554   S
    Zr91   O95       2.11551      .   S
    N5     O95       4.12027      .   S
    Zr56   O96       1.95945      .   S
    N7     O96       4.17191      .   S
    N11    O97       4.17234      .   S
    Zr21   O97       1.95965      .   S
    Zr36   O98       1.95944      .   S
    N15    O98       4.17193      .   S
    Zr66   O99       1.95960      .   S
    N3     O99       4.17227      .   S
    N9     O100      4.17200      .   S
    Zr16   O100      1.95950      .   S
    N6     O101      4.17206      .   S
    Zr76   O101      1.95952      .   S
    Zr41   O102      1.95958      .   S
    N13    O102      4.17213      .   S
    Zr71   O103      1.95961      .   S
    N4     O103      4.17231      .   S
    Zr81   O104      1.95966      .   S
    N10    O104      4.17235      .   S
    Zr31   O105      1.96626      .   S
    N1     O105      4.17843      .   S
    Zr46   O106      1.96625      .   S
    N0     O106      4.17841      .   S
    Zr51   O107      1.95945      .   S
    N8     O107      4.17191      .   S
    Zr61   O108      1.95945      .   S
    N14    O108      4.17194      .   S
    Zr91   O109      1.95951      .   S
    N2     O109      4.17204      .   S
    Zr86   O110      1.95952      .   S
    N5     O110      4.17206      .   S
    N12    O111      4.17213      .   S
    Zr26   O111      1.95958      .   S
