# CIF file generated by openbabel 2.4.90, see http://openbabel.sf.net
data_I
_chemical_name_common ''
_cell_length_a 23.068
_cell_length_b 16.552
_cell_length_c 16.552
_cell_angle_alpha 90.011
_cell_angle_beta 89.999
_cell_angle_gamma 90.002
_space_group_name_H-M_alt 'P 1'
_space_group_name_Hall 'P 1'
loop_
    _symmetry_equiv_pos_as_xyz
    x,y,z
loop_
    _atom_site_label
    _atom_site_type_symbol
    _atom_site_fract_x
    _atom_site_fract_y
    _atom_site_fract_z
    _atom_site_occupancy
    C0      C    0.06988   0.37802   0.35726   1.000
    C1      C    0.56988   0.37802   0.35726   1.000
    C2      C    0.06987   0.62199   0.64270   1.000
    C3      C    0.56987   0.62199   0.64270   1.000
    C4      C    0.06987   0.64273   0.37802   1.000
    C5      C    0.56988   0.64273   0.37802   1.000
    C6      C    0.06988   0.35728   0.62196   1.000
    C7      C    0.56988   0.35728   0.62196   1.000
    C8      C    0.18013   0.12199   0.85725   1.000
    C9      C    0.68012   0.12199   0.85725   1.000
    C10     C    0.18013   0.87801   0.14274   1.000
    C11     C    0.68013   0.87801   0.14274   1.000
    C12     C    0.18012   0.85728   0.87804   1.000
    C13     C    0.68012   0.85728   0.87804   1.000
    C14     C    0.18012   0.14272   0.12196   1.000
    C15     C    0.68012   0.14272   0.12196   1.000
    C16     C    0.43012   0.62199   0.64273   1.000
    C17     C    0.93012   0.62199   0.64273   1.000
    C18     C    0.43012   0.37802   0.35720   1.000
    C19     C    0.93013   0.37802   0.35720   1.000
    C20     C    0.43012   0.35728   0.62197   1.000
    C21     C    0.93013   0.35728   0.62197   1.000
    C22     C    0.43012   0.64273   0.37803   1.000
    C23     C    0.93012   0.64273   0.37803   1.000
    C24     C    0.31987   0.87802   0.14270   1.000
    C25     C    0.81988   0.87802   0.14270   1.000
    C26     C    0.31987   0.12200   0.85725   1.000
    C27     C    0.81987   0.12200   0.85725   1.000
    C28     C    0.31988   0.14272   0.12195   1.000
    C29     C    0.81988   0.14272   0.12195   1.000
    C30     C    0.31988   0.85729   0.87803   1.000
    C31     C    0.81988   0.85729   0.87803   1.000
    C32     C    0.09299   0.15554   0.24534   1.000
    C33     C    0.59299   0.15554   0.24534   1.000
    C34     C    0.09294   0.84443   0.75467   1.000
    C35     C    0.59294   0.84443   0.75467   1.000
    C36     C    0.09295   0.75448   0.15554   1.000
    C37     C    0.59295   0.75448   0.15554   1.000
    C38     C    0.09298   0.24555   0.84447   1.000
    C39     C    0.59298   0.24555   0.84447   1.000
    C40     C    0.15702   0.34449   0.74545   1.000
    C41     C    0.65702   0.34449   0.74545   1.000
    C42     C    0.15704   0.65553   0.25455   1.000
    C43     C    0.65704   0.65553   0.25455   1.000
    C44     C    0.15703   0.74544   0.65556   1.000
    C45     C    0.65703   0.74544   0.65556   1.000
    C46     C    0.15704   0.25457   0.34442   1.000
    C47     C    0.65704   0.25457   0.34442   1.000
    C48     C    0.40701   0.84447   0.75465   1.000
    C49     C    0.90701   0.84447   0.75465   1.000
    C50     C    0.40706   0.15558   0.24532   1.000
    C51     C    0.90706   0.15558   0.24532   1.000
    C52     C    0.40705   0.24553   0.84445   1.000
    C53     C    0.90705   0.24553   0.84445   1.000
    C54     C    0.40702   0.75446   0.15550   1.000
    C55     C    0.90702   0.75446   0.15552   1.000
    C56     C    0.34297   0.65552   0.25454   1.000
    C57     C    0.84298   0.65552   0.25454   1.000
    C58     C    0.34296   0.34448   0.74545   1.000
    C59     C    0.84296   0.34448   0.74545   1.000
    C60     C    0.34297   0.25458   0.34443   1.000
    C61     C    0.84297   0.25458   0.34443   1.000
    C62     C    0.34296   0.74544   0.65556   1.000
    C63     C    0.84296   0.74544   0.65550   1.000
    C64     C    0.00000   0.48687   0.40220   1.000
    C65     C    0.50000   0.48687   0.40220   1.000
    C66     C    0.00000   0.94041   0.17551   1.000
    C67     C    0.50000   0.94041   0.17551   1.000
    C68     C    1.00000   0.51314   0.59774   1.000
    C69     C    0.50000   0.51314   0.59774   1.000
    C70     C    1.00000   0.05959   0.82448   1.000
    C71     C    0.50000   0.05959   0.82448   1.000
    C72     C    1.00000   0.59775   0.48687   1.000
    C73     C    0.50000   0.59775   0.48687   1.000
    C74     C    1.00000   0.82437   0.94042   1.000
    C75     C    0.50000   0.82437   0.94042   1.000
    C76     C    0.00000   0.40226   0.51310   1.000
    C77     C    0.50000   0.40226   0.51310   1.000
    C78     C    0.00000   0.17564   0.05957   1.000
    C79     C    0.50000   0.17564   0.05957   1.000
    C80     C    0.25000   0.01314   0.90222   1.000
    C81     C    0.75000   0.01314   0.90222   1.000
    C82     C    0.25000   0.55963   0.67567   1.000
    C83     C    0.75000   0.55963   0.67567   1.000
    C84     C    0.25000   0.98686   0.09777   1.000
    C85     C    0.75000   0.98686   0.09777   1.000
    C86     C    0.25000   0.44039   0.32432   1.000
    C87     C    0.75000   0.44039   0.32432   1.000
    C88     C    0.25000   0.90229   0.98689   1.000
    C89     C    0.75000   0.90229   0.98689   1.000
    C90     C    0.25000   0.67549   0.44040   1.000
    C91     C    0.75000   0.67549   0.44040   1.000
    C92     C    0.25000   0.09772   0.01310   1.000
    C93     C    0.75000   0.09772   0.01310   1.000
    C94     C    0.25000   0.32455   0.55950   1.000
    C95     C    0.75000   0.32455   0.55950   1.000
    C96     C    0.05247   0.12360   0.23470   1.000
    C97     C    0.55247   0.12360   0.23470   1.000
    C98     C    0.05263   0.04340   0.20776   1.000
    C99     C    0.55263   0.04340   0.20776   1.000
    C100    C    0.10838   0.00140   0.18974   1.000
    C101    C    0.60838   0.00140   0.18974   1.000
    C102    C    0.05243   0.87638   0.76528   1.000
    C103    C    0.55243   0.87638   0.76528   1.000
    C104    C    0.05261   0.95659   0.79224   1.000
    C105    C    0.55261   0.95659   0.79224   1.000
    C106    C    0.10837   0.99858   0.81024   1.000
    C107    C    0.60837   0.99858   0.81024   1.000
    C108    C    0.05245   0.76509   0.12359   1.000
    C109    C    0.55245   0.76509   0.12359   1.000
    C110    C    0.05262   0.79209   0.04341   1.000
    C111    C    0.55262   0.79209   0.04341   1.000
    C112    C    0.10837   0.81017   0.00140   1.000
    C113    C    0.60837   0.81017   0.00140   1.000
    C114    C    0.05247   0.23492   0.87640   1.000
    C115    C    0.55247   0.23492   0.87640   1.000
    C116    C    0.05263   0.20792   0.95659   1.000
    C117    C    0.55263   0.20792   0.95659   1.000
    C118    C    0.10838   0.18985   0.99850   1.000
    C119    C    0.60838   0.18985   0.99850   1.000
    C120    C    0.19754   0.37643   0.73485   1.000
    C121    C    0.69754   0.37643   0.73485   1.000
    C122    C    0.19737   0.45663   0.70789   1.000
    C123    C    0.69737   0.45663   0.70789   1.000
    C124    C    0.14162   0.49861   0.68984   1.000
    C125    C    0.64162   0.49861   0.68984   1.000
    C126    C    0.19755   0.62358   0.26514   1.000
    C127    C    0.69755   0.62358   0.26514   1.000
    C128    C    0.19738   0.54339   0.29210   1.000
    C129    C    0.69738   0.54339   0.29210   1.000
    C130    C    0.14163   0.50141   0.31019   1.000
    C131    C    0.64163   0.50141   0.31019   1.000
    C132    C    0.19754   0.73481   0.62362   1.000
    C133    C    0.69754   0.73481   0.62362   1.000
    C134    C    0.19737   0.70780   0.54343   1.000
    C135    C    0.69737   0.70780   0.54343   1.000
    C136    C    0.14162   0.68981   0.50140   1.000
    C137    C    0.64162   0.68981   0.50140   1.000
    C138    C    0.19755   0.26521   0.37637   1.000
    C139    C    0.69755   0.26521   0.37637   1.000
    C140    C    0.19738   0.29222   0.45655   1.000
    C141    C    0.69738   0.29222   0.45655   1.000
    C142    C    0.14162   0.31022   0.49856   1.000
    C143    C    0.64163   0.31022   0.49856   1.000
    C144    C    0.44752   0.87640   0.76527   1.000
    C145    C    0.94752   0.87640   0.76527   1.000
    C146    C    0.44737   0.95660   0.79223   1.000
    C147    C    0.94737   0.95660   0.79223   1.000
    C148    C    0.39162   0.99861   0.81025   1.000
    C149    C    0.89162   0.99861   0.81025   1.000
    C150    C    0.44756   0.12362   0.23472   1.000
    C151    C    0.94757   0.12362   0.23472   1.000
    C152    C    0.44739   0.04342   0.20775   1.000
    C153    C    0.94739   0.04342   0.20775   1.000
    C154    C    0.39163   0.00142   0.18975   1.000
    C155    C    0.89163   0.00142   0.18975   1.000
    C156    C    0.44755   0.23491   0.87640   1.000
    C157    C    0.94755   0.23491   0.87640   1.000
    C158    C    0.44738   0.20792   0.95658   1.000
    C159    C    0.94738   0.20792   0.95658   1.000
    C160    C    0.39163   0.18984   0.99856   1.000
    C161    C    0.89163   0.18984   0.99856   1.000
    C162    C    0.44753   0.76509   0.12350   1.000
    C163    C    0.94753   0.76509   0.12350   1.000
    C164    C    0.44737   0.79208   0.04340   1.000
    C165    C    0.94737   0.79208   0.04340   1.000
    C166    C    0.39162   0.81016   0.00140   1.000
    C167    C    0.89162   0.81016   0.00140   1.000
    C168    C    0.30246   0.62358   0.26514   1.000
    C169    C    0.80246   0.62358   0.26514   1.000
    C170    C    0.30263   0.54339   0.29210   1.000
    C171    C    0.80263   0.54339   0.29210   1.000
    C172    C    0.35838   0.50140   0.31014   1.000
    C173    C    0.85838   0.50140   0.31014   1.000
    C174    C    0.30245   0.37643   0.73485   1.000
    C175    C    0.80245   0.37643   0.73485   1.000
    C176    C    0.30262   0.45662   0.70789   1.000
    C177    C    0.80262   0.45662   0.70789   1.000
    C178    C    0.35837   0.49860   0.68981   1.000
    C179    C    0.85837   0.49860   0.68981   1.000
    C180    C    0.30246   0.26521   0.37637   1.000
    C181    C    0.80246   0.26521   0.37637   1.000
    C182    C    0.30262   0.29222   0.45655   1.000
    C183    C    0.80263   0.29222   0.45655   1.000
    C184    C    0.35838   0.31023   0.49856   1.000
    C185    C    0.85838   0.31023   0.49856   1.000
    C186    C    0.30245   0.73481   0.62362   1.000
    C187    C    0.80245   0.73481   0.62362   1.000
    C188    C    0.30262   0.70780   0.54343   1.000
    C189    C    0.80262   0.70780   0.54343   1.000
    C190    C    0.35837   0.68978   0.50143   1.000
    C191    C    0.85838   0.68979   0.50143   1.000
    C192    C    0.00002   0.16360   0.24897   1.000
    C193    C    0.50002   0.16360   0.24897   1.000
    C194    C    0.00001   0.00300   0.19560   1.000
    C195    C    0.50001   0.00300   0.19560   1.000
    C196    C    0.00003   0.24880   0.27985   1.000
    C197    C    0.50003   0.24880   0.27985   1.000
    C198    C    0.99997   0.83641   0.75102   1.000
    C199    C    0.49997   0.83641   0.75102   1.000
    C200    C    0.99999   0.99700   0.80439   1.000
    C201    C    0.49999   0.99700   0.80439   1.000
    C202    C    0.99996   0.75121   0.72014   1.000
    C203    C    0.49997   0.75121   0.72014   1.000
    C204    C    0.99999   0.75085   0.16357   1.000
    C205    C    0.49999   0.75085   0.16357   1.000
    C206    C    0.99999   0.80423   0.00300   1.000
    C207    C    0.50000   0.80423   0.00300   1.000
    C208    C    0.99998   0.72007   0.24879   1.000
    C209    C    0.49998   0.72007   0.24879   1.000
    C210    C    0.00001   0.24916   0.83642   1.000
    C211    C    0.50001   0.24916   0.83642   1.000
    C212    C    0.00000   0.19577   0.99698   1.000
    C213    C    0.50001   0.19577   0.99698   1.000
    C214    C    0.00002   0.27994   0.75120   1.000
    C215    C    0.50002   0.27994   0.75120   1.000
    C216    C    0.24999   0.33644   0.74900   1.000
    C217    C    0.74999   0.33644   0.74900   1.000
    C218    C    0.25000   0.49703   0.69576   1.000
    C219    C    0.75000   0.49703   0.69576   1.000
    C220    C    0.24999   0.25122   0.77988   1.000
    C221    C    0.74999   0.25122   0.77988   1.000
    C222    C    0.25001   0.66357   0.25090   1.000
    C223    C    0.75001   0.66357   0.25090   1.000
    C224    C    0.25000   0.50298   0.30423   1.000
    C225    C    0.75000   0.50298   0.30423   1.000
    C226    C    0.25001   0.74879   0.22010   1.000
    C227    C    0.75001   0.74879   0.22013   1.000
    C228    C    0.25000   0.74906   0.66360   1.000
    C229    C    0.75000   0.74906   0.66360   1.000
    C230    C    0.25000   0.69564   0.50303   1.000
    C231    C    0.75000   0.69563   0.50303   1.000
    C232    C    0.25000   0.77984   0.74883   1.000
    C233    C    0.75000   0.77984   0.74883   1.000
    C234    C    0.25001   0.25096   0.33639   1.000
    C235    C    0.75001   0.25096   0.33639   1.000
    C236    C    0.25000   0.30440   0.49695   1.000
    C237    C    0.75000   0.30439   0.49695   1.000
    C238    C    0.25001   0.22016   0.25116   1.000
    C239    C    0.75001   0.22016   0.25116   1.000
    C240    C    0.04937   0.28148   0.29171   1.000
    C241    C    0.54937   0.28148   0.29171   1.000
    C242    C    0.15524   0.04074   0.18043   1.000
    C243    C    0.65524   0.04074   0.18043   1.000
    C244    C    0.10716   0.92413   0.18377   1.000
    C245    C    0.60716   0.92413   0.18377   1.000
    C246    C    0.04930   0.71851   0.70828   1.000
    C247    C    0.54930   0.71851   0.70828   1.000
    C248    C    0.15522   0.95924   0.81955   1.000
    C249    C    0.65522   0.95924   0.81955   1.000
    C250    C    0.10716   0.07585   0.81620   1.000
    C251    C    0.60716   0.07585   0.81620   1.000
    C252    C    0.04932   0.70823   0.28149   1.000
    C253    C    0.54932   0.70823   0.28149   1.000
    C254    C    0.15521   0.81952   0.04079   1.000
    C255    C    0.65521   0.81952   0.04079   1.000
    C256    C    0.10716   0.81622   0.92415   1.000
    C257    C    0.60716   0.81622   0.92415   1.000
    C258    C    0.04935   0.29177   0.71850   1.000
    C259    C    0.54935   0.29177   0.71850   1.000
    C260    C    0.15522   0.18047   0.95921   1.000
    C261    C    0.65522   0.18047   0.95921   1.000
    C262    C    0.10716   0.18379   0.07580   1.000
    C263    C    0.60716   0.18379   0.07580   1.000
    C264    C    0.20065   0.21853   0.79174   1.000
    C265    C    0.70065   0.21853   0.79174   1.000
    C266    C    0.09478   0.45925   0.68040   1.000
    C267    C    0.59478   0.45925   0.68045   1.000
    C268    C    0.14284   0.57588   0.68379   1.000
    C269    C    0.64284   0.57588   0.68370   1.000
    C270    C    0.20068   0.78147   0.20824   1.000
    C271    C    0.70068   0.78147   0.20824   1.000
    C272    C    0.09478   0.54077   0.31950   1.000
    C273    C    0.59478   0.54077   0.31952   1.000
    C274    C    0.14284   0.42414   0.31619   1.000
    C275    C    0.64284   0.42414   0.31619   1.000
    C276    C    0.20066   0.79179   0.78148   1.000
    C277    C    0.70066   0.79178   0.78148   1.000
    C278    C    0.09477   0.68045   0.54078   1.000
    C279    C    0.59477   0.68045   0.54078   1.000
    C280    C    0.14284   0.68375   0.42415   1.000
    C281    C    0.64284   0.68375   0.42415   1.000
    C282    C    0.20067   0.20822   0.21850   1.000
    C283    C    0.70067   0.20822   0.21850   1.000
    C284    C    0.09477   0.31955   0.45921   1.000
    C285    C    0.59478   0.31955   0.45921   1.000
    C286    C    0.14285   0.31626   0.57583   1.000
    C287    C    0.64285   0.31626   0.57583   1.000
    C288    C    0.45062   0.71853   0.70828   1.000
    C289    C    0.95063   0.71853   0.70828   1.000
    C290    C    0.34476   0.95927   0.81956   1.000
    C291    C    0.84476   0.95927   0.81956   1.000
    C292    C    0.39284   0.07588   0.81621   1.000
    C293    C    0.89284   0.07588   0.81621   1.000
    C294    C    0.45070   0.28150   0.29171   1.000
    C295    C    0.95070   0.28150   0.29171   1.000
    C296    C    0.34478   0.04077   0.18040   1.000
    C297    C    0.84478   0.04077   0.18043   1.000
    C298    C    0.39284   0.92416   0.18375   1.000
    C299    C    0.89284   0.92416   0.18375   1.000
    C300    C    0.45068   0.29177   0.71850   1.000
    C301    C    0.95068   0.29177   0.71850   1.000
    C302    C    0.34479   0.18049   0.95920   1.000
    C303    C    0.84479   0.18049   0.95920   1.000
    C304    C    0.39284   0.18379   0.07583   1.000
    C305    C    0.89284   0.18379   0.07583   1.000
    C306    C    0.45065   0.70823   0.28149   1.000
    C307    C    0.95065   0.70823   0.28149   1.000
    C308    C    0.34478   0.81953   0.04078   1.000
    C309    C    0.84478   0.81953   0.04078   1.000
    C310    C    0.39284   0.81622   0.92410   1.000
    C311    C    0.89284   0.81622   0.92414   1.000
    C312    C    0.29935   0.78147   0.20824   1.000
    C313    C    0.79935   0.78147   0.20824   1.000
    C314    C    0.40522   0.54076   0.31954   1.000
    C315    C    0.90522   0.54076   0.31954   1.000
    C316    C    0.35716   0.42413   0.31621   1.000
    C317    C    0.85716   0.42413   0.31621   1.000
    C318    C    0.29932   0.21853   0.79174   1.000
    C319    C    0.79932   0.21853   0.79174   1.000
    C320    C    0.40522   0.45924   0.68047   1.000
    C321    C    0.90522   0.45924   0.68047   1.000
    C322    C    0.35716   0.57587   0.68379   1.000
    C323    C    0.85716   0.57587   0.68379   1.000
    C324    C    0.29935   0.20823   0.21850   1.000
    C325    C    0.79935   0.20823   0.21850   1.000
    C326    C    0.40523   0.31955   0.45920   1.000
    C327    C    0.90523   0.31955   0.45920   1.000
    C328    C    0.35716   0.31625   0.57580   1.000
    C329    C    0.85716   0.31626   0.57580   1.000
    C330    C    0.29933   0.79179   0.78148   1.000
    C331    C    0.79933   0.79179   0.78148   1.000
    C332    C    0.40522   0.68046   0.54077   1.000
    C333    C    0.90522   0.68046   0.54077   1.000
    C334    C    0.35715   0.68376   0.42415   1.000
    C335    C    0.85715   0.68376   0.42415   1.000
    C336    C    0.00000   0.42678   0.40300   1.000
    C337    C    0.50000   0.42678   0.40300   1.000
    C338    C    1.00000   0.57322   0.59699   1.000
    C339    C    0.50000   0.57322   0.59699   1.000
    C340    C    1.00000   0.59700   0.42678   1.000
    C341    C    0.50000   0.59700   0.42678   1.000
    C342    C    0.00000   0.40301   0.57321   1.000
    C343    C    0.50000   0.40301   0.57321   1.000
    C344    C    0.25000   0.07323   0.90299   1.000
    C345    C    0.75000   0.07323   0.90299   1.000
    C346    C    0.25000   0.92678   0.09000   1.000
    C347    C    0.75000   0.92678   0.09000   1.000
    C348    C    0.25000   0.90302   0.92680   1.000
    C349    C    0.75000   0.90302   0.92680   1.000
    C350    C    0.25000   0.09699   0.07319   1.000
    C351    C    0.75000   0.09699   0.07319   1.000
    O352    O    0.13179   0.81484   0.02109   1.000
    O353    O    0.08049   0.80113   0.02240   1.000
    O354    O    0.10776   0.81319   0.96277   1.000
    O355    O    0.63179   0.81484   0.02109   1.000
    O356    O    0.58049   0.80113   0.02240   1.000
    O357    O    0.60776   0.81319   0.96277   1.000
    O358    O    0.86820   0.81484   0.02109   1.000
    O359    O    0.91950   0.80112   0.02240   1.000
    O360    O    0.89223   0.81319   0.96277   1.000
    O361    O    0.36820   0.81484   0.02109   1.000
    O362    O    0.41949   0.80112   0.02240   1.000
    O363    O    0.39223   0.81319   0.96275   1.000
    O364    O    0.47368   0.79816   0.02320   1.000
    O365    O    0.52631   0.79816   0.02320   1.000
    O366    O    0.50000   0.81430   0.97171   1.000
    O367    O    0.97368   0.79816   0.02320   1.000
    O368    O    0.02631   0.79816   0.02320   1.000
    O369    O    1.00000   0.81430   0.97171   1.000
    O370    O    0.25000   0.09736   0.04314   1.000
    O371    O    0.75000   0.09736   0.04314   1.000
    O372    O    0.83233   0.84878   0.09174   1.000
    O373    O    0.33233   0.84878   0.09174   1.000
    O374    O    0.16767   0.84877   0.09176   1.000
    O375    O    0.66767   0.84877   0.09176   1.000
    O376    O    0.44745   0.77859   0.08345   1.000
    O377    O    0.94745   0.77859   0.08345   1.000
    O378    O    0.55253   0.77859   0.08350   1.000
    O379    O    0.05253   0.77859   0.08350   1.000
    O380    O    0.00000   0.18571   0.02827   1.000
    O381    O    0.50000   0.18571   0.02827   1.000
    O382    O    0.28494   0.11986   0.09757   1.000
    O383    O    0.78494   0.11986   0.09757   1.000
    O384    O    0.64364   0.16325   0.09888   1.000
    O385    O    0.60777   0.18682   0.03715   1.000
    O386    O    0.14364   0.16325   0.09888   1.000
    O387    O    0.10777   0.18682   0.03715   1.000
    O388    O    0.85636   0.16326   0.09889   1.000
    O389    O    0.89224   0.18682   0.03720   1.000
    O390    O    0.35636   0.16326   0.09889   1.000
    O391    O    0.39224   0.18682   0.03720   1.000
    O392    O    0.25000   0.95682   0.09388   1.000
    O393    O    0.28494   0.90240   0.11635   1.000
    O394    O    0.75000   0.95682   0.09388   1.000
    O395    O    0.78494   0.90240   0.11635   1.000
    O396    O    0.33233   0.09175   0.15118   1.000
    O397    O    0.30961   0.17548   0.17022   1.000
    O398    O    0.83233   0.09175   0.15119   1.000
    O399    O    0.80961   0.17548   0.17022   1.000
    O400    O    0.66768   0.09173   0.15119   1.000
    O401    O    0.69040   0.17547   0.17023   1.000
    O402    O    0.16768   0.09173   0.15119   1.000
    O403    O    0.19040   0.17547   0.17023   1.000
    O404    O    0.92728   0.75978   0.13951   1.000
    O405    O    0.97376   0.75797   0.14353   1.000
    O406    O    0.42728   0.75978   0.13950   1.000
    O407    O    0.47376   0.75797   0.14353   1.000
    O408    O    0.57270   0.75979   0.13956   1.000
    O409    O    0.52622   0.75797   0.14358   1.000
    O410    O    0.07270   0.75979   0.13956   1.000
    O411    O    0.02622   0.75797   0.14358   1.000
    O412    O    0.85636   0.90109   0.16323   1.000
    O413    O    0.80961   0.82975   0.17547   1.000
    O414    O    0.35636   0.90109   0.16323   1.000
    O415    O    0.30961   0.82975   0.17547   1.000
    O416    O    0.64365   0.90107   0.16325   1.000
    O417    O    0.69040   0.82974   0.17549   1.000
    O418    O    0.14364   0.90107   0.16325   1.000
    O419    O    0.19040   0.82974   0.17549   1.000
    O420    O    0.49999   0.73546   0.20618   1.000
    O421    O    0.99999   0.73546   0.20618   1.000
    O422    O    0.50000   0.97171   0.18555   1.000
    O423    O    0.00000   0.97171   0.18555   1.000
    O424    O    0.36821   0.02109   0.18508   1.000
    O425    O    0.13181   0.02107   0.18508   1.000
    O426    O    0.63181   0.02107   0.18508   1.000
    O427    O    0.86821   0.02109   0.18509   1.000
    O428    O    0.39224   0.96279   0.18675   1.000
    O429    O    0.89224   0.96279   0.18675   1.000
    O430    O    0.10777   0.96277   0.18675   1.000
    O431    O    0.60777   0.96277   0.18675   1.000
    O432    O    0.58051   0.02240   0.19875   1.000
    O433    O    0.08051   0.02240   0.19875   1.000
    O434    O    0.91951   0.02242   0.19875   1.000
    O435    O    0.41951   0.02242   0.19875   1.000
    O436    O    0.97370   0.02321   0.20167   1.000
    O437    O    0.02632   0.02320   0.20168   1.000
    O438    O    0.47370   0.02321   0.20167   1.000
    O439    O    0.52632   0.02320   0.20168   1.000
    O440    O    0.94748   0.08352   0.22123   1.000
    O441    O    0.44748   0.08352   0.22123   1.000
    O442    O    0.55255   0.08350   0.22123   1.000
    O443    O    0.05255   0.08350   0.22123   1.000
    O444    O    0.77468   0.76514   0.21418   1.000
    O445    O    0.27468   0.76514   0.21417   1.000
    O446    O    0.22534   0.76514   0.21417   1.000
    O447    O    0.72534   0.76513   0.21418   1.000
    O448    O    0.72534   0.21419   0.23483   1.000
    O449    O    0.27468   0.21420   0.23483   1.000
    O450    O    0.22534   0.21419   0.23483   1.000
    O451    O    0.77468   0.21420   0.23483   1.000
    O452    O    0.25001   0.70618   0.23550   1.000
    O453    O    0.75001   0.70618   0.23551   1.000
    O454    O    0.07273   0.13957   0.24002   1.000
    O455    O    0.02625   0.14360   0.24183   1.000
    O456    O    0.57273   0.13957   0.24002   1.000
    O457    O    0.52625   0.14360   0.24183   1.000
    O458    O    0.42731   0.13960   0.24002   1.000
    O459    O    0.47379   0.14361   0.24185   1.000
    O460    O    0.92731   0.13960   0.24002   1.000
    O461    O    0.97379   0.14361   0.24185   1.000
    O462    O    0.52465   0.71415   0.26514   1.000
    O463    O    0.47532   0.71415   0.26514   1.000
    O464    O    0.97532   0.71415   0.26514   1.000
    O465    O    0.02465   0.71415   0.26514   1.000
    O466    O    0.00003   0.20620   0.26441   1.000
    O467    O    0.50003   0.20620   0.26441   1.000
    O468    O    0.77624   0.64357   0.25802   1.000
    O469    O    0.72378   0.64358   0.25802   1.000
    O470    O    0.27624   0.64357   0.25802   1.000
    O471    O    0.22378   0.64358   0.25802   1.000
    O472    O    0.25001   0.23556   0.29378   1.000
    O473    O    0.75001   0.23556   0.29378   1.000
    O474    O    0.32272   0.63955   0.25984   1.000
    O475    O    0.82272   0.63955   0.25984   1.000
    O476    O    0.17730   0.63956   0.25984   1.000
    O477    O    0.67730   0.63956   0.25984   1.000
    O478    O    0.80254   0.58348   0.27862   1.000
    O479    O    0.30254   0.58348   0.27862   1.000
    O480    O    0.19747   0.58349   0.27862   1.000
    O481    O    0.69747   0.58349   0.27862   1.000
    O482    O    0.02470   0.26514   0.28578   1.000
    O483    O    0.97537   0.26515   0.28578   1.000
    O484    O    0.52470   0.26514   0.28578   1.000
    O485    O    0.47537   0.26515   0.28578   1.000
    O486    O    0.55960   0.67548   0.32975   1.000
    O487    O    0.44039   0.67548   0.32976   1.000
    O488    O    0.94039   0.67548   0.32976   1.000
    O489    O    0.05960   0.67548   0.32975   1.000
    O490    O    0.05962   0.32975   0.32448   1.000
    O491    O    0.55962   0.32975   0.32448   1.000
    O492    O    0.94041   0.32976   0.32445   1.000
    O493    O    0.44041   0.32976   0.32445   1.000
    O494    O    0.72369   0.52318   0.29817   1.000
    O495    O    0.66950   0.52240   0.30114   1.000
    O496    O    0.77631   0.52318   0.29817   1.000
    O497    O    0.83050   0.52239   0.30112   1.000
    O498    O    0.22369   0.52318   0.29817   1.000
    O499    O    0.16950   0.52240   0.30114   1.000
    O500    O    0.27631   0.52318   0.29817   1.000
    O501    O    0.33050   0.52239   0.30112   1.000
    O502    O    0.75000   0.47168   0.31427   1.000
    O503    O    0.25000   0.47168   0.31427   1.000
    O504    O    0.85777   0.46276   0.31318   1.000
    O505    O    0.88180   0.52108   0.31484   1.000
    O506    O    0.35777   0.46276   0.31318   1.000
    O507    O    0.38180   0.52108   0.31484   1.000
    O508    O    0.64223   0.46277   0.31319   1.000
    O509    O    0.61821   0.52109   0.31485   1.000
    O510    O    0.14223   0.46277   0.31319   1.000
    O511    O    0.11820   0.52109   0.31484   1.000
    O512    O    0.10636   0.40108   0.33672   1.000
    O513    O    0.60636   0.40108   0.33672   1.000
    O514    O    0.39364   0.40108   0.33670   1.000
    O515    O    0.89364   0.40108   0.33670   1.000
    O516    O    0.08233   0.59175   0.34876   1.000
    O517    O    0.58233   0.59175   0.34877   1.000
    O518    O    0.41767   0.59174   0.34878   1.000
    O519    O    0.91767   0.59174   0.34878   1.000
    O520    O    0.27623   0.25809   0.35638   1.000
    O521    O    0.22378   0.25808   0.35638   1.000
    O522    O    0.72378   0.25808   0.35638   1.000
    O523    O    0.77623   0.25809   0.35638   1.000
    O524    O    0.17729   0.25989   0.36039   1.000
    O525    O    0.67730   0.25989   0.36039   1.000
    O526    O    0.32272   0.25990   0.36040   1.000
    O527    O    0.82272   0.25990   0.36040   1.000
    O528    O    0.91768   0.34879   0.40820   1.000
    O529    O    0.41768   0.34879   0.40820   1.000
    O530    O    0.53494   0.40240   0.38013   1.000
    O531    O    0.58233   0.34879   0.40824   1.000
    O532    O    0.03494   0.40240   0.38013   1.000
    O533    O    0.08233   0.34879   0.40824   1.000
    O534    O    0.69747   0.27871   0.41646   1.000
    O535    O    0.80254   0.27872   0.41646   1.000
    O536    O    0.30254   0.27872   0.41646   1.000
    O537    O    0.19746   0.27871   0.41646   1.000
    O538    O    0.10636   0.66324   0.40109   1.000
    O539    O    0.60636   0.66324   0.40109   1.000
    O540    O    0.39364   0.66324   0.40109   1.000
    O541    O    0.46506   0.61986   0.40240   1.000
    O542    O    0.89364   0.66324   0.40109   1.000
    O543    O    0.96506   0.61986   0.40240   1.000
    O544    O    0.50000   0.45683   0.40260   1.000
    O545    O    0.00000   0.45683   0.40260   1.000
    O546    O    0.85776   0.68677   0.46279   1.000
    O547    O    0.35776   0.68677   0.46279   1.000
    O548    O    0.14223   0.68678   0.46277   1.000
    O549    O    0.64223   0.68678   0.46277   1.000
    O550    O    0.50000   0.59737   0.45682   1.000
    O551    O    1.00000   0.59737   0.45682   1.000
    O552    O    0.75000   0.68556   0.47171   1.000
    O553    O    0.25000   0.68556   0.47171   1.000
    O554    O    0.22369   0.29831   0.47675   1.000
    O555    O    0.16950   0.30122   0.47756   1.000
    O556    O    0.27631   0.29831   0.47675   1.000
    O557    O    0.33050   0.30123   0.47756   1.000
    O558    O    0.77631   0.29831   0.47675   1.000
    O559    O    0.83050   0.30122   0.47756   1.000
    O560    O    0.72369   0.29831   0.47675   1.000
    O561    O    0.66950   0.30122   0.47756   1.000
    O562    O    0.38180   0.31489   0.47888   1.000
    O563    O    0.88181   0.31489   0.47888   1.000
    O564    O    0.61820   0.31489   0.47889   1.000
    O565    O    0.11820   0.31489   0.47889   1.000
    O566    O    0.75000   0.31447   0.52822   1.000
    O567    O    0.25000   0.31447   0.52822   1.000
    O568    O    0.64224   0.31324   0.53719   1.000
    O569    O    0.14224   0.31324   0.53719   1.000
    O570    O    0.85777   0.31324   0.53718   1.000
    O571    O    0.35777   0.31324   0.53718   1.000
    O572    O    0.61820   0.68513   0.52109   1.000
    O573    O    0.66950   0.69880   0.52241   1.000
    O574    O    0.11819   0.68513   0.52109   1.000
    O575    O    0.16950   0.69881   0.52241   1.000
    O576    O    0.88180   0.68512   0.52110   1.000
    O577    O    0.83050   0.69879   0.52243   1.000
    O578    O    0.38180   0.68512   0.52110   1.000
    O579    O    0.33050   0.69879   0.52243   1.000
    O580    O    0.77631   0.70172   0.52323   1.000
    O581    O    0.72369   0.70172   0.52323   1.000
    O582    O    0.27631   0.70172   0.52323   1.000
    O583    O    0.22369   0.70172   0.52323   1.000
    O584    O    0.00000   0.40264   0.54316   1.000
    O585    O    0.50000   0.40264   0.54316   1.000
    O586    O    0.41767   0.65122   0.59175   1.000
    O587    O    0.91767   0.65122   0.59175   1.000
    O588    O    0.58232   0.65122   0.59174   1.000
    O589    O    0.08232   0.65122   0.59174   1.000
    O590    O    0.30254   0.72131   0.58352   1.000
    O591    O    0.80254   0.72130   0.58352   1.000
    O592    O    0.69746   0.72130   0.58352   1.000
    O593    O    0.19746   0.72130   0.58352   1.000
    O594    O    0.53494   0.38014   0.59758   1.000
    O595    O    0.96506   0.38014   0.59759   1.000
    O596    O    0.89364   0.33677   0.59889   1.000
    O597    O    0.39364   0.33677   0.59889   1.000
    O598    O    0.10636   0.33677   0.59889   1.000
    O599    O    0.60636   0.33677   0.59889   1.000
    O600    O    0.50000   0.54318   0.59737   1.000
    O601    O    0.53494   0.59761   0.61984   1.000
    O602    O    1.00000   0.54318   0.59737   1.000
    O603    O    0.03493   0.59761   0.61984   1.000
    O604    O    0.08233   0.40826   0.65118   1.000
    O605    O    0.05961   0.32452   0.67023   1.000
    O606    O    0.58233   0.40826   0.65121   1.000
    O607    O    0.55962   0.32453   0.67023   1.000
    O608    O    0.91767   0.40826   0.65122   1.000
    O609    O    0.94040   0.32453   0.67024   1.000
    O610    O    0.41767   0.40826   0.65122   1.000
    O611    O    0.44040   0.32453   0.67024   1.000
    O612    O    0.17729   0.74013   0.63959   1.000
    O613    O    0.22377   0.74193   0.64361   1.000
    O614    O    0.82271   0.74012   0.63956   1.000
    O615    O    0.77623   0.74193   0.64361   1.000
    O616    O    0.32271   0.74013   0.63959   1.000
    O617    O    0.27623   0.74194   0.64361   1.000
    O618    O    0.67729   0.74013   0.63959   1.000
    O619    O    0.72377   0.74193   0.64361   1.000
    O620    O    0.60636   0.59893   0.66320   1.000
    O621    O    0.55959   0.67025   0.67549   1.000
    O622    O    0.10636   0.59893   0.66324   1.000
    O623    O    0.05958   0.67025   0.67549   1.000
    O624    O    0.89364   0.59893   0.66326   1.000
    O625    O    0.94037   0.67026   0.67551   1.000
    O626    O    0.39364   0.59893   0.66326   1.000
    O627    O    0.44037   0.67026   0.67551   1.000
    O628    O    0.75000   0.76445   0.70621   1.000
    O629    O    0.25000   0.76445   0.70621   1.000
    O630    O    0.75000   0.52833   0.68571   1.000
    O631    O    0.25000   0.52833   0.68571   1.000
    O632    O    0.11820   0.47893   0.68512   1.000
    O633    O    0.61820   0.47893   0.68515   1.000
    O634    O    0.38180   0.47892   0.68514   1.000
    O635    O    0.88179   0.47892   0.68514   1.000
    O636    O    0.64223   0.53725   0.68677   1.000
    O637    O    0.35777   0.53723   0.68680   1.000
    O638    O    0.85777   0.53723   0.68680   1.000
    O639    O    0.14223   0.53725   0.68681   1.000
    O640    O    0.33050   0.47761   0.69885   1.000
    O641    O    0.83050   0.47761   0.69885   1.000
    O642    O    0.16950   0.47762   0.69887   1.000
    O643    O    0.66950   0.47762   0.69887   1.000
    O644    O    0.77631   0.47683   0.70183   1.000
    O645    O    0.72369   0.47683   0.70183   1.000
    O646    O    0.22369   0.47683   0.70183   1.000
    O647    O    0.27631   0.47683   0.70183   1.000
    O648    O    0.19745   0.41653   0.72137   1.000
    O649    O    0.30253   0.41652   0.72137   1.000
    O650    O    0.80253   0.41652   0.72137   1.000
    O651    O    0.69746   0.41653   0.72137   1.000
    O652    O    0.47530   0.73487   0.71421   1.000
    O653    O    0.97530   0.73487   0.71421   1.000
    O654    O    0.02463   0.73486   0.71421   1.000
    O655    O    0.52463   0.73486   0.71421   1.000
    O656    O    0.52468   0.28585   0.73485   1.000
    O657    O    0.02468   0.28585   0.73485   1.000
    O658    O    0.47535   0.28585   0.73485   1.000
    O659    O    0.97535   0.28586   0.73485   1.000
    O660    O    0.99997   0.79381   0.73558   1.000
    O661    O    0.49997   0.79381   0.73558   1.000
    O662    O    0.17728   0.36046   0.74015   1.000
    O663    O    0.22376   0.35644   0.74192   1.000
    O664    O    0.82270   0.36045   0.74015   1.000
    O665    O    0.77622   0.35644   0.74192   1.000
    O666    O    0.32270   0.36045   0.74015   1.000
    O667    O    0.27622   0.35644   0.74192   1.000
    O668    O    0.67728   0.36046   0.74015   1.000
    O669    O    0.72376   0.35644   0.74192   1.000
    O670    O    0.27466   0.78581   0.76516   1.000
    O671    O    0.22533   0.78581   0.76516   1.000
    O672    O    0.72533   0.78581   0.76516   1.000
    O673    O    0.77466   0.78581   0.76516   1.000
    O674    O    0.24999   0.29383   0.76444   1.000
    O675    O    0.74999   0.29383   0.76444   1.000
    O676    O    0.47375   0.85641   0.75815   1.000
    O677    O    0.52620   0.85640   0.75815   1.000
    O678    O    0.97375   0.85641   0.75815   1.000
    O679    O    0.02620   0.85640   0.75815   1.000
    O680    O    0.50002   0.26455   0.79381   1.000
    O681    O    0.00001   0.26455   0.79381   1.000
    O682    O    0.92727   0.86044   0.75996   1.000
    O683    O    0.42727   0.86044   0.75996   1.000
    O684    O    0.07268   0.86041   0.75997   1.000
    O685    O    0.57269   0.86041   0.75997   1.000
    O686    O    0.44744   0.91650   0.77875   1.000
    O687    O    0.94745   0.91650   0.77875   1.000
    O688    O    0.55252   0.91649   0.77876   1.000
    O689    O    0.05252   0.91648   0.77876   1.000
    O690    O    0.77465   0.23488   0.78581   1.000
    O691    O    0.72532   0.23488   0.78581   1.000
    O692    O    0.22532   0.23487   0.78581   1.000
    O693    O    0.27465   0.23488   0.78581   1.000
    O694    O    0.30961   0.82454   0.82975   1.000
    O695    O    0.69039   0.82453   0.82976   1.000
    O696    O    0.19039   0.82453   0.82976   1.000
    O697    O    0.80961   0.82454   0.82975   1.000
    O698    O    0.19039   0.17026   0.82449   1.000
    O699    O    0.30960   0.17026   0.82449   1.000
    O700    O    0.80960   0.17026   0.82449   1.000
    O701    O    0.69039   0.17026   0.82449   1.000
    O702    O    0.47368   0.97680   0.79831   1.000
    O703    O    0.41949   0.97761   0.80124   1.000
    O704    O    0.97368   0.97680   0.79831   1.000
    O705    O    0.91949   0.97761   0.80124   1.000
    O706    O    0.02630   0.97679   0.79831   1.000
    O707    O    0.08049   0.97758   0.80124   1.000
    O708    O    0.52630   0.97679   0.79831   1.000
    O709    O    0.58049   0.97759   0.80124   1.000
    O710    O    0.50000   0.02830   0.81443   1.000
    O711    O    0.99999   0.02830   0.81443   1.000
    O712    O    0.60776   0.03722   0.81322   1.000
    O713    O    0.63179   0.97891   0.81490   1.000
    O714    O    0.10776   0.03722   0.81322   1.000
    O715    O    0.13179   0.97891   0.81490   1.000
    O716    O    0.89223   0.03724   0.81323   1.000
    O717    O    0.86819   0.97894   0.81490   1.000
    O718    O    0.39223   0.03724   0.81323   1.000
    O719    O    0.36819   0.97894   0.81490   1.000
    O720    O    0.64364   0.09892   0.83672   1.000
    O721    O    0.14364   0.09892   0.83672   1.000
    O722    O    0.85635   0.09894   0.83673   1.000
    O723    O    0.35635   0.09894   0.83673   1.000
    O724    O    0.66767   0.90826   0.84879   1.000
    O725    O    0.16767   0.90826   0.84879   1.000
    O726    O    0.83232   0.90828   0.84879   1.000
    O727    O    0.33232   0.90828   0.84879   1.000
    O728    O    0.97378   0.24203   0.85641   1.000
    O729    O    0.02624   0.24204   0.85641   1.000
    O730    O    0.47378   0.24203   0.85641   1.000
    O731    O    0.52624   0.24204   0.85641   1.000
    O732    O    0.42730   0.24022   0.86042   1.000
    O733    O    0.92730   0.24022   0.86042   1.000
    O734    O    0.57272   0.24023   0.86043   1.000
    O735    O    0.07272   0.24023   0.86043   1.000
    O736    O    0.33233   0.15124   0.90823   1.000
    O737    O    0.78494   0.09761   0.88012   1.000
    O738    O    0.83233   0.15124   0.90823   1.000
    O739    O    0.66767   0.15123   0.90823   1.000
    O740    O    0.21506   0.09761   0.88012   1.000
    O741    O    0.16767   0.15123   0.90823   1.000
    O742    O    0.94747   0.22142   0.91649   1.000
    O743    O    0.44747   0.22142   0.91649   1.000
    O744    O    0.05255   0.22142   0.91649   1.000
    O745    O    0.55255   0.22142   0.91649   1.000
    O746    O    0.85636   0.83676   0.90108   1.000
    O747    O    0.35636   0.83676   0.90107   1.000
    O748    O    0.14364   0.83675   0.90109   1.000
    O749    O    0.21506   0.88015   0.90242   1.000
    O750    O    0.64364   0.83675   0.90109   1.000
    O751    O    0.71506   0.88015   0.90242   1.000
    O752    O    0.25000   0.04319   0.90260   1.000
    O753    O    0.75000   0.04319   0.90260   1.000
    O754    O    0.75000   0.90265   0.95684   1.000
    O755    O    0.25000   0.90265   0.95684   1.000
    O756    O    0.47369   0.20185   0.97678   1.000
    O757    O    0.41951   0.19888   0.97757   1.000
    O758    O    0.97369   0.20185   0.97678   1.000
    O759    O    0.91951   0.19888   0.97757   1.000
    O760    O    0.52632   0.20185   0.97679   1.000
    O761    O    0.58051   0.19889   0.97754   1.000
    O762    O    0.02632   0.20185   0.97679   1.000
    O763    O    0.08051   0.19889   0.97754   1.000
    O764    O    0.36821   0.18516   0.97888   1.000
    O765    O    0.86821   0.18516   0.97888   1.000
    O766    O    0.13180   0.18516   0.97885   1.000
    O767    O    0.63180   0.18516   0.97885   1.000
    O768    O    0.96506   0.40240   0.38010   1.000
    O769    O    0.46506   0.40240   0.38010   1.000
    O770    O    0.96506   0.59760   0.61986   1.000
    O771    O    0.46506   0.59760   0.61986   1.000
    O772    O    0.03494   0.61986   0.40240   1.000
    O773    O    0.53494   0.61986   0.40240   1.000
    O774    O    0.03494   0.38014   0.59758   1.000
    O775    O    0.46506   0.38014   0.59759   1.000
    O776    O    0.28493   0.09761   0.88012   1.000
    O777    O    0.71506   0.09761   0.88012   1.000
    O778    O    0.21506   0.90239   0.11637   1.000
    O779    O    0.71506   0.90239   0.11637   1.000
    O780    O    0.28494   0.88015   0.90241   1.000
    O781    O    0.78494   0.88015   0.90241   1.000
    O782    O    0.21506   0.11986   0.09758   1.000
    O783    O    0.71506   0.11985   0.09758   1.000
loop_
    _geom_bond_atom_site_label_1
    _geom_bond_atom_site_label_2
    _geom_bond_distance
    _geom_bond_site_symmetry_2
    _ccdc_geom_bond_type
    C112   O352      0.63572      .   S
    C254   O352      0.63572      .   S
    C112   O353      0.74619      .   S
    C110   O353      0.74619      .   S
    C112   O354      0.64144  1_554   S
    C256   O354      0.64144      .   S
    C113   O355      0.63572      .   S
    C255   O355      0.63572      .   S
    C113   O356      0.74619      .   S
    C111   O356      0.74619      .   S
    C113   O357      0.64144  1_554   S
    C257   O357      0.64144      .   S
    C167   O358      0.63569      .   S
    C309   O358      0.63569      .   S
    C167   O359      0.74613      .   S
    C165   O359      0.74613      .   S
    C167   O360      0.64153  1_554   S
    C311   O360      0.64153      .   S
    C166   O361      0.63569      .   S
    C308   O361      0.63569      .   S
    C166   O362      0.74613      .   S
    C164   O362      0.74613      .   S
    C166   O363      0.64187  1_554   S
    C310   O363      0.64187      .   S
    C207   O364      0.70023      .   S
    C164   O364      0.70023      .   S
    C207   O365      0.70025      .   S
    C111   O365      0.70025      .   S
    C207   O366      0.54409  1_554   S
    C75    O366      0.54409      .   S
    C206   O367      0.70022      .   S
    C165   O367      0.70022      .   S
    C206   O368      0.70024  1_655   S
    C110   O368      0.70024      .   S
    C206   O369      0.54408  1_554   S
    C74    O369      0.54408      .   S
    C92    O370      0.49734      .   S
    C350   O370      0.49734      .   S
    C93    O371      0.49734      .   S
    C351   O371      0.49734      .   S
    C309   O372      1.01397      .   S
    C25    O372      1.01397      .   S
    C308   O373      1.01397      .   S
    C24    O373      1.01397      .   S
    C254   O374      1.01422      .   S
    C10    O374      1.01422      .   S
    C255   O375      1.01421      .   S
    C11    O375      1.01421      .   S
    C164   O376      0.69958      .   S
    C162   O376      0.69958      .   S
    C165   O377      0.69958      .   S
    C163   O377      0.69958      .   S
    C111   O378      0.70020      .   S
    C109   O378      0.70020      .   S
    C110   O379      0.70020      .   S
    C108   O379      0.70020      .   S
    C78    O380      0.54416      .   S
    C212   O380      0.54416  1_556   S
    C79    O381      0.54416      .   S
    C213   O381      0.54416  1_556   S
    C350   O382      0.97757      .   S
    C28    O382      0.97757      .   S
    C351   O383      0.97757      .   S
    C29    O383      0.97757      .   S
    C263   O384      0.98473      .   S
    C15    O384      0.98473      .   S
    C263   O385      0.64186      .   S
    C119   O385      0.64186  1_556   S
    C262   O386      0.98474      .   S
    C14    O386      0.98474      .   S
    C262   O387      0.64186      .   S
    C118   O387      0.64186  1_556   S
    C305   O388      0.98458      .   S
    C29    O388      0.98458      .   S
    C305   O389      0.64161      .   S
    C161   O389      0.64161  1_556   S
    C304   O390      0.98458      .   S
    C28    O390      0.98458      .   S
    C304   O391      0.64161      .   S
    C160   O391      0.64161  1_556   S
    C346   O392      0.50141      .   S
    C84    O392      0.50141      .   S
    C346   O393      1.00134      .   S
    C24    O393      1.00134      .   S
    C347   O394      0.50141      .   S
    C85    O394      0.50141      .   S
    C347   O395      1.00134      .   S
    C25    O395      1.00134      .   S
    C28    O396      1.01421      .   S
    C296   O396      1.01421      .   S
    C28    O397      0.99413      .   S
    C324   O397      0.99413      .   S
    C29    O398      1.01432      .   S
    C297   O398      1.01432      .   S
    C29    O399      0.99413      .   S
    C325   O399      0.99413      .   S
    C15    O400      1.01437      .   S
    C243   O400      1.01437      .   S
    C15    O401      0.99411      .   S
    C283   O401      0.99411      .   S
    C14    O402      1.01438      .   S
    C242   O402      1.01438      .   S
    C14    O403      0.99410      .   S
    C282   O403      0.99410      .   S
    C163   O404      0.54432      .   S
    C55    O404      0.54432      .   S
    C163   O405      0.69994      .   S
    C204   O405      0.69994      .   S
    C162   O406      0.54423      .   S
    C54    O406      0.54423      .   S
    C162   O407      0.69996      .   S
    C205   O407      0.69996      .   S
    C109   O408      0.54400      .   S
    C37    O408      0.54400      .   S
    C109   O409      0.69963      .   S
    C205   O409      0.69963      .   S
    C108   O410      0.54399      .   S
    C36    O410      0.54399      .   S
    C108   O411      0.69964      .   S
    C204   O411      0.69964  1_655   S
    C25    O412      0.98461      .   S
    C299   O412      0.98461      .   S
    C25    O413      0.99439      .   S
    C313   O413      0.99439      .   S
    C24    O414      0.98461      .   S
    C298   O414      0.98461      .   S
    C24    O415      0.99439      .   S
    C312   O415      0.99439      .   S
    C11    O416      0.98448      .   S
    C245   O416      0.98448      .   S
    C11    O417      0.99424      .   S
    C271   O417      0.99424      .   S
    C10    O418      0.98449      .   S
    C244   O418      0.98449      .   S
    C10    O419      0.99423      .   S
    C270   O419      0.99423      .   S
    C205   O420      0.74991      .   S
    C209   O420      0.74991      .   S
    C204   O421      0.74991      .   S
    C208   O421      0.74991      .   S
    C67    O422      0.54399      .   S
    C195   O422      0.54399  1_545   S
    C66    O423      0.54399      .   S
    C194   O423      0.54399  1_545   S
    C296   O424      0.63565      .   S
    C154   O424      0.63565      .   S
    C242   O425      0.63562      .   S
    C100   O425      0.63562      .   S
    C243   O426      0.63562      .   S
    C101   O426      0.63562      .   S
    C297   O427      0.63562      .   S
    C155   O427      0.63562      .   S
    C298   O428      0.64150      .   S
    C154   O428      0.64150  1_545   S
    C299   O429      0.64149      .   S
    C155   O429      0.64149  1_545   S
    C244   O430      0.64149      .   S
    C100   O430      0.64149  1_545   S
    C245   O431      0.64149      .   S
    C101   O431      0.64149  1_545   S
    C101   O432      0.74605      .   S
    C99    O432      0.74605      .   S
    C100   O433      0.74604      .   S
    C98    O433      0.74604      .   S
    C155   O434      0.74606      .   S
    C153   O434      0.74606      .   S
    C154   O435      0.74605      .   S
    C152   O435      0.74605      .   S
    C194   O436      0.70019  1_455   S
    C153   O436      0.70019      .   S
    C194   O437      0.70022      .   S
    C98    O437      0.70022      .   S
    C195   O438      0.70022      .   S
    C152   O438      0.70022      .   S
    C195   O439      0.70021      .   S
    C99    O439      0.70021      .   S
    C153   O440      0.70023      .   S
    C151   O440      0.70023      .   S
    C152   O441      0.70023      .   S
    C150   O441      0.70023      .   S
    C99    O442      0.70014      .   S
    C97    O442      0.70014      .   S
    C98    O443      0.70015      .   S
    C96    O443      0.70015      .   S
    C313   O444      0.63769      .   S
    C227   O444      0.63769      .   S
    C312   O445      0.63765      .   S
    C226   O445      0.63765      .   S
    C270   O446      0.63765      .   S
    C226   O446      0.63765      .   S
    C271   O447      0.63769      .   S
    C227   O447      0.63769      .   S
    C283   O448      0.63767      .   S
    C239   O448      0.63767      .   S
    C324   O449      0.63769      .   S
    C238   O449      0.63769      .   S
    C282   O450      0.63767      .   S
    C238   O450      0.63767      .   S
    C325   O451      0.63768      .   S
    C239   O451      0.63768      .   S
    C226   O452      0.75004      .   S
    C222   O452      0.75004      .   S
    C227   O453      0.74995      .   S
    C223   O453      0.74995      .   S
    C96    O454      0.54402      .   S
    C32    O454      0.54402      .   S
    C96    O455      0.69964      .   S
    C192   O455      0.69964      .   S
    C97    O456      0.54402      .   S
    C33    O456      0.54402      .   S
    C97    O457      0.69964      .   S
    C193   O457      0.69964      .   S
    C150   O458      0.54398      .   S
    C50    O458      0.54398      .   S
    C150   O459      0.69961      .   S
    C193   O459      0.69961      .   S
    C151   O460      0.54398      .   S
    C51    O460      0.54398      .   S
    C151   O461      0.69959      .   S
    C192   O461      0.69959  1_455   S
    C209   O462      0.63770      .   S
    C253   O462      0.63770      .   S
    C209   O463      0.63769      .   S
    C306   O463      0.63769      .   S
    C208   O464      0.63768      .   S
    C307   O464      0.63768      .   S
    C208   O465      0.63769  1_655   S
    C252   O465      0.63769      .   S
    C192   O466      0.74994      .   S
    C196   O466      0.74994      .   S
    C193   O467      0.74994      .   S
    C197   O467      0.74994      .   S
    C223   O468      0.69962      .   S
    C169   O468      0.69962      .   S
    C223   O469      0.69962      .   S
    C127   O469      0.69962      .   S
    C222   O470      0.69962      .   S
    C168   O470      0.69962      .   S
    C222   O471      0.69961      .   S
    C126   O471      0.69961      .   S
    C238   O472      0.74995      .   S
    C234   O472      0.74995      .   S
    C239   O473      0.74995      .   S
    C235   O473      0.74995      .   S
    C56    O474      0.54399      .   S
    C168   O474      0.54399      .   S
    C57    O475      0.54399      .   S
    C169   O475      0.54399      .   S
    C42    O476      0.54399      .   S
    C126   O476      0.54399      .   S
    C43    O477      0.54398      .   S
    C127   O477      0.54398      .   S
    C169   O478      0.70023      .   S
    C171   O478      0.70023      .   S
    C168   O479      0.70022      .   S
    C170   O479      0.70022      .   S
    C126   O480      0.70022      .   S
    C128   O480      0.70022      .   S
    C127   O481      0.70022      .   S
    C129   O481      0.70022      .   S
    C196   O482      0.63768      .   S
    C240   O482      0.63768      .   S
    C196   O483      0.63765  1_455   S
    C295   O483      0.63765      .   S
    C197   O484      0.63768      .   S
    C241   O484      0.63768      .   S
    C197   O485      0.63767      .   S
    C294   O485      0.63767      .   S
    C253   O486      0.99422      .   S
    C5     O486      0.99422      .   S
    C306   O487      0.99420      .   S
    C22    O487      0.99420      .   S
    C307   O488      0.99420      .   S
    C23    O488      0.99420      .   S
    C252   O489      0.99422      .   S
    C4     O489      0.99422      .   S
    C240   O490      0.99420      .   S
    C0     O490      0.99420      .   S
    C241   O491      0.99420      .   S
    C1     O491      0.99420      .   S
    C295   O492      0.99401      .   S
    C19    O492      0.99401      .   S
    C294   O493      0.99401      .   S
    C18    O493      0.99401      .   S
    C129   O494      0.70022      .   S
    C225   O494      0.70022      .   S
    C129   O495      0.74609      .   S
    C131   O495      0.74609      .   S
    C171   O496      0.70022      .   S
    C225   O496      0.70022      .   S
    C171   O497      0.74609      .   S
    C173   O497      0.74609      .   S
    C128   O498      0.70023      .   S
    C224   O498      0.70023      .   S
    C128   O499      0.74608      .   S
    C130   O499      0.74608      .   S
    C170   O500      0.70022      .   S
    C224   O500      0.70022      .   S
    C170   O501      0.74609      .   S
    C172   O501      0.74609      .   S
    C225   O502      0.54409      .   S
    C87    O502      0.54409      .   S
    C224   O503      0.54409      .   S
    C86    O503      0.54409      .   S
    C173   O504      0.64160      .   S
    C317   O504      0.64160      .   S
    C173   O505      0.63561      .   S
    C315   O505      0.63561      .   S
    C172   O506      0.64160      .   S
    C316   O506      0.64160      .   S
    C172   O507      0.63560      .   S
    C314   O507      0.63560      .   S
    C131   O508      0.64158      .   S
    C275   O508      0.64158      .   S
    C131   O509      0.63562      .   S
    C273   O509      0.63562      .   S
    C130   O510      0.64158      .   S
    C274   O510      0.64158      .   S
    C130   O511      0.63561      .   S
    C272   O511      0.63561      .   S
    C274   O512      0.98455      .   S
    C0     O512      0.98455      .   S
    C275   O513      0.98455      .   S
    C1     O513      0.98455      .   S
    C316   O514      0.98440      .   S
    C18    O514      0.98440      .   S
    C317   O515      0.98440      .   S
    C19    O515      0.98440      .   S
    C272   O516      1.01440      .   S
    C4     O516      1.01440      .   S
    C273   O517      1.01432      .   S
    C5     O517      1.01432      .   S
    C314   O518      1.01433      .   S
    C22    O518      1.01433      .   S
    C315   O519      1.01433      .   S
    C23    O519      1.01433      .   S
    C234   O520      0.69959      .   S
    C180   O520      0.69959      .   S
    C234   O521      0.69961      .   S
    C138   O521      0.69961      .   S
    C235   O522      0.69960      .   S
    C139   O522      0.69960      .   S
    C235   O523      0.69960      .   S
    C181   O523      0.69960      .   S
    C46    O524      0.54401      .   S
    C138   O524      0.54401      .   S
    C47    O525      0.54401      .   S
    C139   O525      0.54401      .   S
    C60    O526      0.54398      .   S
    C180   O526      0.54398      .   S
    C61    O527      0.54398      .   S
    C181   O527      0.54398      .   S
    C19    O528      1.01455      .   S
    C327   O528      1.01455      .   S
    C18    O529      1.01455      .   S
    C326   O529      1.01455      .   S
    C1     O530      0.97758      .   S
    C337   O530      0.97758      .   S
    C1     O531      1.01424      .   S
    C285   O531      1.01424      .   S
    C0     O532      0.97758      .   S
    C336   O532      0.97758      .   S
    C0     O533      1.01424      .   S
    C284   O533      1.01424      .   S
    C139   O534      0.70018      .   S
    C141   O534      0.70018      .   S
    C181   O535      0.70017      .   S
    C183   O535      0.70017      .   S
    C180   O536      0.70017      .   S
    C182   O536      0.70017      .   S
    C138   O537      0.70018      .   S
    C140   O537      0.70018      .   S
    C4     O538      0.98451      .   S
    C280   O538      0.98451      .   S
    C5     O539      0.98451      .   S
    C281   O539      0.98451      .   S
    C22    O540      0.98451      .   S
    C334   O540      0.98451      .   S
    C22    O541      0.97759      .   S
    C341   O541      0.97759      .   S
    C23    O542      0.98451      .   S
    C335   O542      0.98451      .   S
    C23    O543      0.97757      .   S
    C340   O543      0.97757      .   S
    C65    O544      0.49733      .   S
    C337   O544      0.49733      .   S
    C64    O545      0.49733      .   S
    C336   O545      0.49733      .   S
    C335   O546      0.64166      .   S
    C191   O546      0.64166      .   S
    C334   O547      0.64166      .   S
    C190   O547      0.64166      .   S
    C280   O548      0.64144      .   S
    C136   O548      0.64144      .   S
    C281   O549      0.64143      .   S
    C137   O549      0.64143      .   S
    C341   O550      0.49734      .   S
    C73    O550      0.49734      .   S
    C340   O551      0.49734      .   S
    C72    O551      0.49734      .   S
    C91    O552      0.54445      .   S
    C231   O552      0.54445      .   S
    C90    O553      0.54445      .   S
    C230   O553      0.54445      .   S
    C140   O554      0.70022      .   S
    C236   O554      0.70022      .   S
    C140   O555      0.74606      .   S
    C142   O555      0.74606      .   S
    C182   O556      0.70022      .   S
    C236   O556      0.70022      .   S
    C182   O557      0.74605      .   S
    C184   O557      0.74605      .   S
    C183   O558      0.70022      .   S
    C237   O558      0.70022      .   S
    C183   O559      0.74605      .   S
    C185   O559      0.74605      .   S
    C141   O560      0.70022      .   S
    C237   O560      0.70022      .   S
    C141   O561      0.74606      .   S
    C143   O561      0.74606      .   S
    C326   O562      0.63568      .   S
    C184   O562      0.63568      .   S
    C327   O563      0.63568      .   S
    C185   O563      0.63568      .   S
    C285   O564      0.63563      .   S
    C143   O564      0.63563      .   S
    C284   O565      0.63563      .   S
    C142   O565      0.63563      .   S
    C237   O566      0.54384      .   S
    C95    O566      0.54384      .   S
    C236   O567      0.54384      .   S
    C94    O567      0.54384      .   S
    C143   O568      0.64159      .   S
    C287   O568      0.64159      .   S
    C142   O569      0.64159      .   S
    C286   O569      0.64159      .   S
    C185   O570      0.64133      .   S
    C329   O570      0.64133      .   S
    C184   O571      0.64133      .   S
    C328   O571      0.64133      .   S
    C137   O572      0.63575      .   S
    C279   O572      0.63575      .   S
    C137   O573      0.74613      .   S
    C135   O573      0.74613      .   S
    C136   O574      0.63574      .   S
    C278   O574      0.63574      .   S
    C136   O575      0.74614      .   S
    C134   O575      0.74614      .   S
    C191   O576      0.63559      .   S
    C333   O576      0.63559      .   S
    C191   O577      0.74603      .   S
    C189   O577      0.74603      .   S
    C190   O578      0.63559      .   S
    C332   O578      0.63559      .   S
    C190   O579      0.74604      .   S
    C188   O579      0.74604      .   S
    C231   O580      0.70022      .   S
    C189   O580      0.70022      .   S
    C231   O581      0.70022      .   S
    C135   O581      0.70022      .   S
    C230   O582      0.70021      .   S
    C188   O582      0.70021      .   S
    C230   O583      0.70022      .   S
    C134   O583      0.70022      .   S
    C76    O584      0.49751      .   S
    C342   O584      0.49751      .   S
    C77    O585      0.49751      .   S
    C343   O585      0.49751      .   S
    C332   O586      1.01432      .   S
    C16    O586      1.01432      .   S
    C333   O587      1.01432      .   S
    C17    O587      1.01432      .   S
    C279   O588      1.01399      .   S
    C3     O588      1.01399      .   S
    C278   O589      1.01399      .   S
    C2     O589      1.01399      .   S
    C188   O590      0.70024      .   S
    C186   O590      0.70024      .   S
    C189   O591      0.70024      .   S
    C187   O591      0.70024      .   S
    C135   O592      0.70024      .   S
    C133   O592      0.70024      .   S
    C134   O593      0.70024      .   S
    C132   O593      0.70024      .   S
    C343   O594      0.97758      .   S
    C7     O594      0.97758      .   S
    C342   O595      0.97758  1_455   S
    C21    O595      0.97758      .   S
    C329   O596      0.98465      .   S
    C21    O596      0.98465      .   S
    C328   O597      0.98464      .   S
    C20    O597      0.98464      .   S
    C286   O598      0.98454      .   S
    C6     O598      0.98454      .   S
    C287   O599      0.98453      .   S
    C7     O599      0.98453      .   S
    C339   O600      0.49733      .   S
    C69    O600      0.49733      .   S
    C339   O601      0.97749      .   S
    C3     O601      0.97749      .   S
    C338   O602      0.49733      .   S
    C68    O602      0.49733      .   S
    C338   O603      0.97749  1_655   S
    C2     O603      0.97749      .   S
    C6     O604      1.01413      .   S
    C266   O604      1.01413      .   S
    C6     O605      0.99421      .   S
    C258   O605      0.99421      .   S
    C7     O606      1.01433      .   S
    C267   O606      1.01433      .   S
    C7     O607      0.99420      .   S
    C259   O607      0.99420      .   S
    C21    O608      1.01433      .   S
    C321   O608      1.01433      .   S
    C21    O609      0.99423      .   S
    C301   O609      0.99423      .   S
    C20    O610      1.01432      .   S
    C320   O610      1.01432      .   S
    C20    O611      0.99423      .   S
    C300   O611      0.99423      .   S
    C132   O612      0.54397      .   S
    C44    O612      0.54397      .   S
    C132   O613      0.69961      .   S
    C228   O613      0.69961      .   S
    C187   O614      0.54372      .   S
    C63    O614      0.54372      .   S
    C187   O615      0.69960      .   S
    C229   O615      0.69960      .   S
    C186   O616      0.54396      .   S
    C62    O616      0.54396      .   S
    C186   O617      0.69960      .   S
    C228   O617      0.69960      .   S
    C133   O618      0.54398      .   S
    C45    O618      0.54398      .   S
    C133   O619      0.69960      .   S
    C229   O619      0.69960      .   S
    C3     O620      0.98440      .   S
    C269   O620      0.98440      .   S
    C3     O621      0.99442      .   S
    C247   O621      0.99442      .   S
    C2     O622      0.98465      .   S
    C268   O622      0.98465      .   S
    C2     O623      0.99442      .   S
    C246   O623      0.99442      .   S
    C17    O624      0.98454      .   S
    C323   O624      0.98454      .   S
    C17    O625      0.99418      .   S
    C289   O625      0.99418      .   S
    C16    O626      0.98454      .   S
    C322   O626      0.98454      .   S
    C16    O627      0.99418      .   S
    C288   O627      0.99418      .   S
    C229   O628      0.74991      .   S
    C233   O628      0.74991      .   S
    C228   O629      0.74990      .   S
    C232   O629      0.74990      .   S
    C83    O630      0.54409      .   S
    C219   O630      0.54409      .   S
    C82    O631      0.54409      .   S
    C218   O631      0.54409      .   S
    C266   O632      0.63566      .   S
    C124   O632      0.63566      .   S
    C267   O633      0.63561      .   S
    C125   O633      0.63561      .   S
    C320   O634      0.63562      .   S
    C178   O634      0.63562      .   S
    C321   O635      0.63562      .   S
    C179   O635      0.63562      .   S
    C269   O636      0.64165      .   S
    C125   O636      0.64165      .   S
    C322   O637      0.64158      .   S
    C178   O637      0.64158      .   S
    C323   O638      0.64158      .   S
    C179   O638      0.64158      .   S
    C268   O639      0.64159      .   S
    C124   O639      0.64159      .   S
    C178   O640      0.74608      .   S
    C176   O640      0.74608      .   S
    C179   O641      0.74607      .   S
    C177   O641      0.74607      .   S
    C124   O642      0.74608      .   S
    C122   O642      0.74608      .   S
    C125   O643      0.74608      .   S
    C123   O643      0.74608      .   S
    C219   O644      0.70023      .   S
    C177   O644      0.70023      .   S
    C219   O645      0.70022      .   S
    C123   O645      0.70022      .   S
    C218   O646      0.70023      .   S
    C122   O646      0.70023      .   S
    C218   O647      0.70022      .   S
    C176   O647      0.70022      .   S
    C122   O648      0.70023      .   S
    C120   O648      0.70023      .   S
    C176   O649      0.70022      .   S
    C174   O649      0.70022      .   S
    C177   O650      0.70022      .   S
    C175   O650      0.70022      .   S
    C123   O651      0.70024      .   S
    C121   O651      0.70024      .   S
    C288   O652      0.63769      .   S
    C203   O652      0.63769      .   S
    C289   O653      0.63767      .   S
    C202   O653      0.63767      .   S
    C246   O654      0.63767      .   S
    C202   O654      0.63767  1_655   S
    C247   O655      0.63768      .   S
    C203   O655      0.63768      .   S
    C259   O656      0.63769      .   S
    C215   O656      0.63769      .   S
    C258   O657      0.63769      .   S
    C214   O657      0.63769      .   S
    C300   O658      0.63769      .   S
    C215   O658      0.63769      .   S
    C301   O659      0.63767      .   S
    C214   O659      0.63767  1_455   S
    C202   O660      0.74992      .   S
    C198   O660      0.74992      .   S
    C203   O661      0.74992      .   S
    C199   O661      0.74992      .   S
    C120   O662      0.54399      .   S
    C40    O662      0.54399      .   S
    C120   O663      0.69950      .   S
    C216   O663      0.69950      .   S
    C175   O664      0.54399      .   S
    C59    O664      0.54399      .   S
    C175   O665      0.69950      .   S
    C217   O665      0.69950      .   S
    C174   O666      0.54399      .   S
    C58    O666      0.54399      .   S
    C174   O667      0.69949      .   S
    C216   O667      0.69949      .   S
    C121   O668      0.54398      .   S
    C41    O668      0.54398      .   S
    C121   O669      0.69949      .   S
    C217   O669      0.69949      .   S
    C232   O670      0.63766      .   S
    C330   O670      0.63766      .   S
    C232   O671      0.63766      .   S
    C276   O671      0.63766      .   S
    C233   O672      0.63766      .   S
    C277   O672      0.63766      .   S
    C233   O673      0.63766      .   S
    C331   O673      0.63766      .   S
    C216   O674      0.75025      .   S
    C220   O674      0.75025      .   S
    C217   O675      0.75025      .   S
    C221   O675      0.75025      .   S
    C199   O676      0.69962      .   S
    C144   O676      0.69962      .   S
    C199   O677      0.69962      .   S
    C103   O677      0.69962      .   S
    C198   O678      0.69960      .   S
    C145   O678      0.69960      .   S
    C198   O679      0.69962  1_655   S
    C102   O679      0.69962      .   S
    C215   O680      0.74991      .   S
    C211   O680      0.74991      .   S
    C214   O681      0.74992      .   S
    C210   O681      0.74992      .   S
    C49    O682      0.54400      .   S
    C145   O682      0.54400      .   S
    C48    O683      0.54399      .   S
    C144   O683      0.54399      .   S
    C34    O684      0.54399      .   S
    C102   O684      0.54399      .   S
    C35    O685      0.54399      .   S
    C103   O685      0.54399      .   S
    C144   O686      0.70020      .   S
    C146   O686      0.70020      .   S
    C145   O687      0.70020      .   S
    C147   O687      0.70020      .   S
    C103   O688      0.70021      .   S
    C105   O688      0.70021      .   S
    C102   O689      0.70020      .   S
    C104   O689      0.70020      .   S
    C221   O690      0.63766      .   S
    C319   O690      0.63766      .   S
    C221   O691      0.63767      .   S
    C265   O691      0.63767      .   S
    C220   O692      0.63768      .   S
    C264   O692      0.63768      .   S
    C220   O693      0.63766      .   S
    C318   O693      0.63766      .   S
    C330   O694      0.99414      .   S
    C30    O694      0.99414      .   S
    C277   O695      0.99418      .   S
    C13    O695      0.99418      .   S
    C276   O696      0.99417      .   S
    C12    O696      0.99417      .   S
    C331   O697      0.99414      .   S
    C31    O697      0.99414      .   S
    C264   O698      0.99425      .   S
    C8     O698      0.99425      .   S
    C318   O699      0.99428      .   S
    C26    O699      0.99428      .   S
    C319   O700      0.99428      .   S
    C27    O700      0.99428      .   S
    C265   O701      0.99426      .   S
    C9     O701      0.99426      .   S
    C146   O702      0.70022      .   S
    C201   O702      0.70022      .   S
    C146   O703      0.74603      .   S
    C148   O703      0.74603      .   S
    C147   O704      0.70020      .   S
    C200   O704      0.70020      .   S
    C147   O705      0.74603      .   S
    C149   O705      0.74603      .   S
    C104   O706      0.70022      .   S
    C200   O706      0.70022  1_655   S
    C104   O707      0.74606      .   S
    C106   O707      0.74606      .   S
    C105   O708      0.70022      .   S
    C201   O708      0.70022      .   S
    C105   O709      0.74605      .   S
    C107   O709      0.74605      .   S
    C201   O710      0.54399  1_565   S
    C71    O710      0.54399      .   S
    C200   O711      0.54399  1_565   S
    C70    O711      0.54399      .   S
    C107   O712      0.64147  1_565   S
    C251   O712      0.64147      .   S
    C107   O713      0.63562      .   S
    C249   O713      0.63562      .   S
    C106   O714      0.64147  1_565   S
    C250   O714      0.64147      .   S
    C106   O715      0.63561      .   S
    C248   O715      0.63561      .   S
    C149   O716      0.64148  1_565   S
    C293   O716      0.64148      .   S
    C149   O717      0.63563      .   S
    C291   O717      0.63563      .   S
    C148   O718      0.64148  1_565   S
    C292   O718      0.64148      .   S
    C148   O719      0.63563      .   S
    C290   O719      0.63563      .   S
    C251   O720      0.98461      .   S
    C9     O720      0.98461      .   S
    C250   O721      0.98461      .   S
    C8     O721      0.98461      .   S
    C293   O722      0.98451      .   S
    C27    O722      0.98451      .   S
    C292   O723      0.98451      .   S
    C26    O723      0.98451      .   S
    C249   O724      1.01436      .   S
    C13    O724      1.01436      .   S
    C248   O725      1.01436      .   S
    C12    O725      1.01436      .   S
    C291   O726      1.01438      .   S
    C31    O726      1.01438      .   S
    C290   O727      1.01438      .   S
    C30    O727      1.01438      .   S
    C210   O728      0.69962  1_455   S
    C157   O728      0.69962      .   S
    C210   O729      0.69960      .   S
    C114   O729      0.69960      .   S
    C211   O730      0.69963      .   S
    C156   O730      0.69963      .   S
    C211   O731      0.69961      .   S
    C115   O731      0.69961      .   S
    C52    O732      0.54400      .   S
    C156   O732      0.54400      .   S
    C53    O733      0.54400      .   S
    C157   O733      0.54400      .   S
    C39    O734      0.54396      .   S
    C115   O734      0.54396      .   S
    C38    O735      0.54396      .   S
    C114   O735      0.54396      .   S
    C26    O736      1.01422      .   S
    C302   O736      1.01422      .   S
    C27    O737      0.97761      .   S
    C345   O737      0.97761      .   S
    C27    O738      1.01422      .   S
    C303   O738      1.01422      .   S
    C9     O739      1.01424      .   S
    C261   O739      1.01424      .   S
    C8     O740      0.97760      .   S
    C344   O740      0.97760      .   S
    C8     O741      1.01424      .   S
    C260   O741      1.01424      .   S
    C157   O742      0.70020      .   S
    C159   O742      0.70020      .   S
    C156   O743      0.70020      .   S
    C158   O743      0.70020      .   S
    C114   O744      0.70029      .   S
    C116   O744      0.70029      .   S
    C115   O745      0.70029      .   S
    C117   O745      0.70029      .   S
    C31    O746      0.98457      .   S
    C311   O746      0.98457      .   S
    C30    O747      0.98445      .   S
    C310   O747      0.98445      .   S
    C12    O748      0.98456      .   S
    C256   O748      0.98456      .   S
    C12    O749      0.97757      .   S
    C348   O749      0.97757      .   S
    C13    O750      0.98456      .   S
    C257   O750      0.98456      .   S
    C13    O751      0.97756      .   S
    C349   O751      0.97756      .   S
    C80    O752      0.49732      .   S
    C344   O752      0.49732      .   S
    C81    O753      0.49732      .   S
    C345   O753      0.49732      .   S
    C349   O754      0.49734      .   S
    C89    O754      0.49734      .   S
    C348   O755      0.49734      .   S
    C88    O755      0.49734      .   S
    C158   O756      0.70021      .   S
    C213   O756      0.70021      .   S
    C158   O757      0.74607      .   S
    C160   O757      0.74607      .   S
    C159   O758      0.70019      .   S
    C212   O758      0.70019  1_455   S
    C159   O759      0.74608      .   S
    C161   O759      0.74608      .   S
    C117   O760      0.70020      .   S
    C213   O760      0.70020      .   S
    C117   O761      0.74578      .   S
    C119   O761      0.74578      .   S
    C116   O762      0.70020      .   S
    C212   O762      0.70020      .   S
    C116   O763      0.74578      .   S
    C118   O763      0.74578      .   S
    C302   O764      0.63561      .   S
    C160   O764      0.63561      .   S
    C303   O765      0.63560      .   S
    C161   O765      0.63560      .   S
    C260   O766      0.63531      .   S
    C118   O766      0.63531      .   S
    C261   O767      0.63532      .   S
    C119   O767      0.63532      .   S
    C336   O768      0.97777  1_455   S
    C19    O768      0.97777      .   S
    C337   O769      0.97778      .   S
    C18    O769      0.97778      .   S
    C338   O770      0.97756      .   S
    C17    O770      0.97756      .   S
    C339   O771      0.97758      .   S
    C16    O771      0.97758      .   S
    C340   O772      0.97759  1_655   S
    C4     O772      0.97759      .   S
    C341   O773      0.97760      .   S
    C5     O773      0.97760      .   S
    C342   O774      0.97758      .   S
    C6     O774      0.97758      .   S
    C343   O775      0.97760      .   S
    C20    O775      0.97760      .   S
    C344   O776      0.97761      .   S
    C26    O776      0.97761      .   S
    C345   O777      0.97761      .   S
    C9     O777      0.97761      .   S
    C346   O778      1.00147      .   S
    C10    O778      1.00147      .   S
    C347   O779      1.00147      .   S
    C11    O779      1.00147      .   S
    C348   O780      0.97760      .   S
    C30    O780      0.97760      .   S
    C349   O781      0.97761      .   S
    C31    O781      0.97761      .   S
    C350   O782      0.97760      .   S
    C14    O782      0.97760      .   S
    C351   O783      0.97761      .   S
    C15    O783      0.97761      .   S
