# CIF file generated by openbabel 2.4.90, see http://openbabel.sf.net
data_I
_chemical_name_common ''
_cell_length_a 23.068
_cell_length_b 16.552
_cell_length_c 16.552
_cell_angle_alpha 90.011
_cell_angle_beta 89.999
_cell_angle_gamma 90.002
_space_group_name_H-M_alt 'P 1'
_space_group_name_Hall 'P 1'
loop_
    _symmetry_equiv_pos_as_xyz
    x,y,z
loop_
    _atom_site_label
    _atom_site_type_symbol
    _atom_site_fract_x
    _atom_site_fract_y
    _atom_site_fract_z
    _atom_site_occupancy
    N0      N    0.25000   0.58313   0.27952   1.000
    N1      N    0.75001   0.58313   0.27952   1.000
    N2      N    0.75000   0.72043   0.58315   1.000
    N3      N    0.99999   0.77951   0.08313   1.000
    N4      N    0.49999   0.77951   0.08313   1.000
    N5      N    0.99998   0.91686   0.77961   1.000
    N6      N    0.49998   0.91686   0.77961   1.000
    N7      N    0.25000   0.27959   0.41683   1.000
    N8      N    0.75001   0.27959   0.41683   1.000
    N9      N    0.25000   0.72043   0.58315   1.000
    N10     N    0.74999   0.41688   0.72046   1.000
    N11     N    0.24999   0.41688   0.72046   1.000
    N12     N    0.00001   0.22050   0.91684   1.000
    N13     N    0.50001   0.22050   0.91684   1.000
    N14     N    0.50002   0.08314   0.22038   1.000
    N15     N    0.00002   0.08314   0.22038   1.000
    Zr16    Zr   0.25000   0.87997   0.91744   1.000
    O17     O    0.26490   0.82623   0.81195   1.000
    O18     O    0.33307   0.89627   0.86582   1.000
    O19     O    0.33909   0.84405   0.95477   1.000
    O20     O    0.23510   0.82623   0.81195   1.000
    O21     O    0.16091   0.84405   0.95478   1.000
    O22     O    0.16691   0.89627   0.86582   1.000
    Zr23    Zr   0.25000   0.08259   0.87993   1.000
    O24     O    0.26490   0.18808   0.82620   1.000
    O25     O    0.33908   0.04524   0.84405   1.000
    O26     O    0.33308   0.13423   0.89623   1.000
    O27     O    0.23509   0.18808   0.82620   1.000
    O28     O    0.16692   0.13423   0.89623   1.000
    O29     O    0.16091   0.04524   0.84405   1.000
    Zr30    Zr   0.00000   0.37996   0.58256   1.000
    O31     O    0.08308   0.39627   0.63419   1.000
    O32     O    0.08909   0.34407   0.54521   1.000
    O33     O    0.01491   0.32623   0.68805   1.000
    O34     O    0.98510   0.32623   0.68805   1.000
    O35     O    0.91091   0.34407   0.54521   1.000
    O36     O    0.91692   0.39626   0.63420   1.000
    Zr37    Zr   0.75000   0.91742   0.11830   1.000
    O38     O    0.66692   0.86578   0.10287   1.000
    O39     O    0.66092   0.95476   0.15506   1.000
    O40     O    0.73510   0.81193   0.17290   1.000
    O41     O    0.76490   0.81193   0.17290   1.000
    O42     O    0.83308   0.86578   0.10287   1.000
    O43     O    0.83909   0.95477   0.15505   1.000
    Zr44    Zr   0.00000   0.41742   0.37992   1.000
    O45     O    0.08909   0.45476   0.34402   1.000
    O46     O    0.01491   0.31194   0.32617   1.000
    O47     O    0.08308   0.36581   0.39622   1.000
    O48     O    0.91091   0.45476   0.34401   1.000
    O49     O    0.98511   0.31194   0.32617   1.000
    O50     O    0.91692   0.36581   0.39621   1.000
    Zr51    Zr   0.50000   0.37996   0.58256   1.000
    O52     O    0.41692   0.39626   0.63420   1.000
    O53     O    0.48510   0.32623   0.68805   1.000
    O54     O    0.41091   0.34407   0.54521   1.000
    O55     O    0.51491   0.32623   0.68805   1.000
    O56     O    0.58909   0.34407   0.54521   1.000
    O57     O    0.58308   0.39627   0.63420   1.000
    Zr58    Zr   0.25000   0.91742   0.11830   1.000
    O59     O    0.26490   0.81193   0.17290   1.000
    O60     O    0.33909   0.95477   0.15505   1.000
    O61     O    0.33308   0.86578   0.10287   1.000
    O62     O    0.16092   0.95476   0.15506   1.000
    O63     O    0.23510   0.81193   0.17290   1.000
    O64     O    0.16692   0.86578   0.10288   1.000
    Zr65    Zr   0.75000   0.12004   0.08255   1.000
    O66     O    0.83309   0.10374   0.13417   1.000
    O67     O    0.83909   0.15596   0.04521   1.000
    O68     O    0.76491   0.17379   0.18804   1.000
    O69     O    0.66091   0.15596   0.04521   1.000
    O70     O    0.73510   0.17378   0.18804   1.000
    O71     O    0.66693   0.10374   0.13417   1.000
    Zr72    Zr   0.25000   0.12004   0.08255   1.000
    O73     O    0.23510   0.17378   0.18804   1.000
    O74     O    0.16692   0.10374   0.13417   1.000
    O75     O    0.16091   0.15596   0.04521   1.000
    O76     O    0.26491   0.17379   0.18804   1.000
    O77     O    0.33909   0.15596   0.04521   1.000
    O78     O    0.33309   0.10374   0.13416   1.000
    Zr79    Zr   0.50000   0.41742   0.37992   1.000
    O80     O    0.48511   0.31194   0.32617   1.000
    O81     O    0.41091   0.45476   0.34401   1.000
    O82     O    0.41692   0.36581   0.39621   1.000
    O83     O    0.58909   0.45476   0.34402   1.000
    O84     O    0.58308   0.36581   0.39622   1.000
    O85     O    0.51491   0.31194   0.32617   1.000
    Zr86    Zr   1.00000   0.62005   0.41743   1.000
    O87     O    0.91692   0.60374   0.36579   1.000
    O88     O    0.98509   0.67377   0.31194   1.000
    O89     O    0.91091   0.65594   0.45477   1.000
    O90     O    0.08909   0.65594   0.45477   1.000
    O91     O    0.08308   0.60374   0.36578   1.000
    O92     O    0.01490   0.67377   0.31193   1.000
    Zr93    Zr   0.50000   0.62005   0.41743   1.000
    O94     O    0.41692   0.60374   0.36579   1.000
    O95     O    0.48509   0.67377   0.31193   1.000
    O96     O    0.41091   0.65594   0.45477   1.000
    O97     O    0.58308   0.60374   0.36579   1.000
    O98     O    0.58909   0.65594   0.45477   1.000
    O99     O    0.51490   0.67377   0.31193   1.000
    Zr100   Zr   0.50000   0.58258   0.62004   1.000
    O101    O    0.51489   0.68807   0.67379   1.000
    O102    O    0.58308   0.63420   0.60374   1.000
    O103    O    0.58909   0.54525   0.65593   1.000
    O104    O    0.41692   0.63420   0.60375   1.000
    O105    O    0.41091   0.54524   0.65595   1.000
    O106    O    0.48509   0.68807   0.67380   1.000
    Zr107   Zr   0.75000   0.08259   0.87993   1.000
    O108    O    0.66091   0.04524   0.84405   1.000
    O109    O    0.73510   0.18808   0.82620   1.000
    O110    O    0.66692   0.13423   0.89623   1.000
    O111    O    0.83308   0.13423   0.89623   1.000
    O112    O    0.76490   0.18808   0.82620   1.000
    O113    O    0.83908   0.04524   0.84405   1.000
    Zr114   Zr   1.00000   0.58258   0.62004   1.000
    O115    O    0.91692   0.63420   0.60374   1.000
    O116    O    0.91091   0.54524   0.65595   1.000
    O117    O    0.98509   0.68807   0.67380   1.000
    O118    O    0.08308   0.63420   0.60374   1.000
    O119    O    0.08909   0.54525   0.65595   1.000
    O120    O    0.01489   0.68807   0.67379   1.000
    Zr121   Zr   0.75000   0.87997   0.91744   1.000
    O122    O    0.66691   0.89626   0.86582   1.000
    O123    O    0.66091   0.84405   0.95478   1.000
    O124    O    0.73510   0.82622   0.81195   1.000
    O125    O    0.83909   0.84405   0.95477   1.000
    O126    O    0.76490   0.82623   0.81195   1.000
    O127    O    0.83307   0.89627   0.86582   1.000
loop_
    _geom_bond_atom_site_label_1
    _geom_bond_atom_site_label_2
    _geom_bond_distance
    _geom_bond_site_symmetry_2
    _ccdc_geom_bond_type
    Zr16   O17       1.98942      .   S
    N9     O17       4.18614      .   S
    Zr16   O18       2.11551      .   S
    N6     O18       4.12028      .   S
    Zr16   O19       2.22686      .   S
    N4     O19       4.40840  1_554   S
    Zr16   O20       1.98942      .   S
    N9     O20       4.18614      .   S
    Zr16   O21       2.22691      .   S
    N3     O21       4.40841  1_654   S
    Zr16   O22       2.11576      .   S
    N5     O22       4.12082  1_655   S
    Zr23   O24       1.98956      .   S
    N11    O24       4.18648      .   S
    Zr23   O25       2.22660      .   S
    N6     O25       4.40781  1_565   S
    Zr23   O26       2.11581      .   S
    N13    O26       4.12095      .   S
    Zr23   O27       1.98959      .   S
    N11    O27       4.18647      .   S
    Zr23   O28       2.11571      .   S
    N12    O28       4.12075      .   S
    Zr23   O29       2.22679      .   S
    N5     O29       4.40814  1_665   S
    Zr30   O31       2.11567      .   S
    N11    O31       4.12076      .   S
    Zr30   O32       2.22681      .   S
    N7     O32       4.40821      .   S
    Zr30   O33       1.98952      .   S
    N12    O33       4.18626      .   S
    Zr30   O34       1.98948  1_455   S
    N12    O34       4.18628  1_455   S
    Zr30   O35       2.22673  1_455   S
    N8     O35       4.40807      .   S
    Zr30   O36       2.11579  1_455   S
    N10    O36       4.12085      .   S
    Zr37   O38       2.11401      .   S
    N4     O38       4.11977      .   S
    Zr37   O39       2.23052      .   S
    N14    O39       4.41135  1_545   S
    Zr37   O40       1.99609      .   S
    N1     O40       4.19254      .   S
    Zr37   O41       1.99608      .   S
    N1     O41       4.19256      .   S
    Zr37   O42       2.11393      .   S
    N3     O42       4.11959      .   S
    Zr37   O43       2.23066      .   S
    N15    O43       4.41169  1_445   S
    Zr44   O45       2.22677      .   S
    N0     O45       4.40824      .   S
    Zr44   O46       1.98938      .   S
    N15    O46       4.18606      .   S
    Zr44   O47       2.11569      .   S
    N7     O47       4.12068      .   S
    Zr44   O48       2.22683  1_455   S
    N1     O48       4.40827      .   S
    Zr44   O49       1.98934  1_455   S
    N15    O49       4.18607  1_455   S
    Zr44   O50       2.11557  1_455   S
    N8     O50       4.12051      .   S
    Zr51   O52       2.11581      .   S
    N11    O52       4.12089      .   S
    Zr51   O53       1.98948      .   S
    N13    O53       4.18628      .   S
    Zr51   O54       2.22676      .   S
    N7     O54       4.40810      .   S
    Zr51   O55       1.98952      .   S
    N13    O55       4.18626      .   S
    Zr51   O56       2.22680      .   S
    N8     O56       4.40821      .   S
    Zr51   O57       2.11571      .   S
    N10    O57       4.12070      .   S
    Zr58   O59       1.99607      .   S
    N0     O59       4.19254      .   S
    Zr58   O60       2.23066      .   S
    N14    O60       4.41170  1_545   S
    Zr58   O61       2.11394      .   S
    N4     O61       4.11961      .   S
    Zr58   O62       2.23052      .   S
    N15    O62       4.41135  1_545   S
    Zr58   O63       1.99608      .   S
    N0     O63       4.19252      .   S
    Zr58   O64       2.11400      .   S
    N3     O64       4.11976  1_655   S
    Zr65   O66       2.11573      .   S
    N15    O66       4.12077  1_455   S
    Zr65   O67       2.22694      .   S
    N12    O67       4.40849  1_456   S
    Zr65   O68       1.98938      .   S
    N8     O68       4.18605      .   S
    Zr65   O69       2.22693      .   S
    N13    O69       4.40841  1_556   S
    Zr65   O70       1.98937      .   S
    N8     O70       4.18605      .   S
    Zr65   O71       2.11552      .   S
    N14    O71       4.12029      .   S
    Zr72   O73       1.98937      .   S
    N7     O73       4.18604      .   S
    Zr72   O74       2.11552      .   S
    N15    O74       4.12029      .   S
    Zr72   O75       2.22693      .   S
    N12    O75       4.40840  1_556   S
    Zr72   O76       1.98938      .   S
    N7     O76       4.18605      .   S
    Zr72   O77       2.22694      .   S
    N13    O77       4.40851  1_556   S
    Zr72   O78       2.11571      .   S
    N14    O78       4.12080      .   S
    Zr79   O80       1.98935      .   S
    N14    O80       4.18608      .   S
    Zr79   O81       2.22684      .   S
    N0     O81       4.40829      .   S
    Zr79   O82       2.11559      .   S
    N7     O82       4.12052      .   S
    Zr79   O83       2.22677      .   S
    N1     O83       4.40823      .   S
    Zr79   O84       2.11569      .   S
    N8     O84       4.12068      .   S
    Zr79   O85       1.98939      .   S
    N14    O85       4.18607      .   S
    Zr86   O87       2.11569      .   S
    N1     O87       4.12073      .   S
    Zr86   O88       1.98953      .   S
    N3     O88       4.18639      .   S
    Zr86   O89       2.22678      .   S
    N2     O89       4.40812      .   S
    Zr86   O90       2.22675  1_655   S
    N9     O90       4.40813      .   S
    Zr86   O91       2.11582  1_655   S
    N0     O91       4.12089      .   S
    Zr86   O92       1.98950  1_655   S
    N3     O92       4.18641  1_655   S
    Zr93   O94       2.11571      .   S
    N0     O94       4.12075      .   S
    Zr93   O95       1.98955      .   S
    N4     O95       4.18643      .   S
    Zr93   O96       2.22679      .   S
    N9     O96       4.40815      .   S
    Zr93   O97       2.11580      .   S
    N1     O97       4.12089      .   S
    Zr93   O98       2.22674      .   S
    N2     O98       4.40810      .   S
    Zr93   O99       1.98952      .   S
    N4     O99       4.18645      .   S
    Zr100  O101      1.98937      .   S
    N6     O101      4.18624      .   S
    Zr100  O102      2.11561      .   S
    N2     O102      4.12055      .   S
    Zr100  O103      2.22680      .   S
    N10    O103      4.40840      .   S
    Zr100  O104      2.11567      .   S
    N9     O104      4.12068      .   S
    Zr100  O105      2.22684      .   S
    N11    O105      4.40828      .   S
    Zr100  O106      1.98951      .   S
    N6     O106      4.18615      .   S
    Zr107  O108      2.22679      .   S
    N6     O108      4.40814  1_565   S
    Zr107  O109      1.98959      .   S
    N10    O109      4.18648      .   S
    Zr107  O110      2.11571      .   S
    N13    O110      4.12076      .   S
    Zr107  O111      2.11581      .   S
    N12    O111      4.12093  1_455   S
    Zr107  O112      1.98956      .   S
    N10    O112      4.18649      .   S
    Zr107  O113      2.22659      .   S
    N5     O113      4.40779  1_565   S
    Zr114  O115      2.11566      .   S
    N2     O115      4.12067      .   S
    Zr114  O116      2.22682      .   S
    N10    O116      4.40826      .   S
    Zr114  O117      1.98951      .   S
    N5     O117      4.18614      .   S
    Zr114  O118      2.11561  1_655   S
    N9     O118      4.12056      .   S
    Zr114  O119      2.22685  1_655   S
    N11    O119      4.40836      .   S
    Zr114  O120      1.98937  1_655   S
    N5     O120      4.18624  1_655   S
    Zr121  O122      2.11576      .   S
    N6     O122      4.12083      .   S
    Zr121  O123      2.22691      .   S
    N4     O123      4.40840  1_554   S
    Zr121  O124      1.98944      .   S
    N2     O124      4.18618      .   S
    Zr121  O125      2.22688      .   S
    N3     O125      4.40836  1_554   S
    Zr121  O126      1.98944      .   S
    N2     O126      4.18618      .   S
    Zr121  O127      2.11551      .   S
    N5     O127      4.12027      .   S
