# CIF file generated by openbabel 2.4.90, see http://openbabel.sf.net
data_I
_chemical_name_common ''
_cell_length_a 23.068
_cell_length_b 16.552
_cell_length_c 16.552
_cell_angle_alpha 90.011
_cell_angle_beta 89.999
_cell_angle_gamma 90.002
_space_group_name_H-M_alt 'P 1'
_space_group_name_Hall 'P 1'
loop_
    _symmetry_equiv_pos_as_xyz
    x,y,z
loop_
    _atom_site_label
    _atom_site_type_symbol
    _atom_site_fract_x
    _atom_site_fract_y
    _atom_site_fract_z
    _atom_site_occupancy
    Zr0     Zr   0.06988   0.37802   0.35726   1.000
    Zr1     Zr   0.56988   0.37802   0.35726   1.000
    Zr2     Zr   0.06987   0.62199   0.64270   1.000
    Zr3     Zr   0.56987   0.62199   0.64270   1.000
    Zr4     Zr   0.06987   0.64273   0.37802   1.000
    Zr5     Zr   0.56988   0.64273   0.37802   1.000
    Zr6     Zr   0.06988   0.35728   0.62196   1.000
    Zr7     Zr   0.56988   0.35728   0.62196   1.000
    Zr8     Zr   0.18013   0.12199   0.85725   1.000
    Zr9     Zr   0.68012   0.12199   0.85725   1.000
    Zr10    Zr   0.18013   0.87801   0.14274   1.000
    Zr11    Zr   0.68013   0.87801   0.14274   1.000
    Zr12    Zr   0.18012   0.85728   0.87804   1.000
    Zr13    Zr   0.68012   0.85728   0.87804   1.000
    Zr14    Zr   0.18012   0.14272   0.12196   1.000
    Zr15    Zr   0.68012   0.14272   0.12196   1.000
    Zr16    Zr   0.43012   0.62199   0.64273   1.000
    Zr17    Zr   0.93012   0.62199   0.64273   1.000
    Zr18    Zr   0.43012   0.37802   0.35720   1.000
    Zr19    Zr   0.93013   0.37802   0.35720   1.000
    Zr20    Zr   0.43012   0.35728   0.62197   1.000
    Zr21    Zr   0.93013   0.35728   0.62197   1.000
    Zr22    Zr   0.43012   0.64273   0.37803   1.000
    Zr23    Zr   0.93012   0.64273   0.37803   1.000
    Zr24    Zr   0.31987   0.87802   0.14270   1.000
    Zr25    Zr   0.81988   0.87802   0.14270   1.000
    Zr26    Zr   0.31987   0.12200   0.85725   1.000
    Zr27    Zr   0.81987   0.12200   0.85725   1.000
    Zr28    Zr   0.31988   0.14272   0.12195   1.000
    Zr29    Zr   0.81988   0.14272   0.12195   1.000
    Zr30    Zr   0.31988   0.85729   0.87803   1.000
    Zr31    Zr   0.81988   0.85729   0.87803   1.000
    Zr32    Zr   0.00000   0.48687   0.40220   1.000
    Zr33    Zr   0.50000   0.48687   0.40220   1.000
    Zr34    Zr   1.00000   0.51314   0.59774   1.000
    Zr35    Zr   0.50000   0.51314   0.59774   1.000
    Zr36    Zr   1.00000   0.59775   0.48687   1.000
    Zr37    Zr   0.50000   0.59775   0.48687   1.000
    Zr38    Zr   0.00000   0.40226   0.51310   1.000
    Zr39    Zr   0.50000   0.40226   0.51310   1.000
    Zr40    Zr   0.25000   0.01314   0.90222   1.000
    Zr41    Zr   0.75000   0.01314   0.90222   1.000
    Zr42    Zr   0.25000   0.98686   0.09777   1.000
    Zr43    Zr   0.75000   0.98686   0.09777   1.000
    Zr44    Zr   0.25000   0.90229   0.98689   1.000
    Zr45    Zr   0.75000   0.90229   0.98689   1.000
    Zr46    Zr   0.25000   0.09772   0.01310   1.000
    Zr47    Zr   0.75000   0.09772   0.01310   1.000
    Zr48    Zr   0.00000   0.42678   0.40300   1.000
    Zr49    Zr   0.50000   0.42678   0.40300   1.000
    Zr50    Zr   1.00000   0.57322   0.59699   1.000
    Zr51    Zr   0.50000   0.57322   0.59699   1.000
    Zr52    Zr   1.00000   0.59700   0.42678   1.000
    Zr53    Zr   0.50000   0.59700   0.42678   1.000
    Zr54    Zr   0.00000   0.40301   0.57321   1.000
    Zr55    Zr   0.50000   0.40301   0.57321   1.000
    Zr56    Zr   0.25000   0.07323   0.90299   1.000
    Zr57    Zr   0.75000   0.07323   0.90299   1.000
    Zr58    Zr   0.25000   0.92678   0.09000   1.000
    Zr59    Zr   0.75000   0.92678   0.09000   1.000
    Zr60    Zr   0.25000   0.90302   0.92680   1.000
    Zr61    Zr   0.75000   0.90302   0.92680   1.000
    Zr62    Zr   0.25000   0.09699   0.07319   1.000
    Zr63    Zr   0.75000   0.09699   0.07319   1.000
    O64     O    0.25000   0.09736   0.04314   1.000
    O65     O    0.75000   0.09736   0.04314   1.000
    O66     O    0.28494   0.11986   0.09757   1.000
    O67     O    0.78494   0.11986   0.09757   1.000
    O68     O    0.25000   0.95682   0.09388   1.000
    O69     O    0.28494   0.90240   0.11635   1.000
    O70     O    0.75000   0.95682   0.09388   1.000
    O71     O    0.78494   0.90240   0.11635   1.000
    O72     O    0.53494   0.40240   0.38013   1.000
    O73     O    0.03494   0.40240   0.38013   1.000
    O74     O    0.46506   0.61986   0.40240   1.000
    O75     O    0.96506   0.61986   0.40240   1.000
    O76     O    0.50000   0.45683   0.40260   1.000
    O77     O    0.00000   0.45683   0.40260   1.000
    O78     O    0.50000   0.59737   0.45682   1.000
    O79     O    1.00000   0.59737   0.45682   1.000
    O80     O    0.00000   0.40264   0.54316   1.000
    O81     O    0.50000   0.40264   0.54316   1.000
    O82     O    0.53494   0.38014   0.59758   1.000
    O83     O    0.96506   0.38014   0.59759   1.000
    O84     O    0.50000   0.54318   0.59737   1.000
    O85     O    0.53494   0.59761   0.61984   1.000
    O86     O    1.00000   0.54318   0.59737   1.000
    O87     O    0.03493   0.59761   0.61984   1.000
    O88     O    0.78494   0.09761   0.88012   1.000
    O89     O    0.21506   0.09761   0.88012   1.000
    O90     O    0.21506   0.88015   0.90242   1.000
    O91     O    0.71506   0.88015   0.90242   1.000
    O92     O    0.25000   0.04319   0.90260   1.000
    O93     O    0.75000   0.04319   0.90260   1.000
    O94     O    0.75000   0.90265   0.95684   1.000
    O95     O    0.25000   0.90265   0.95684   1.000
    O96     O    0.96506   0.40240   0.38010   1.000
    O97     O    0.46506   0.40240   0.38010   1.000
    O98     O    0.96506   0.59760   0.61986   1.000
    O99     O    0.46506   0.59760   0.61986   1.000
    O100    O    0.03494   0.61986   0.40240   1.000
    O101    O    0.53494   0.61986   0.40240   1.000
    O102    O    0.03494   0.38014   0.59758   1.000
    O103    O    0.46506   0.38014   0.59759   1.000
    O104    O    0.28493   0.09761   0.88012   1.000
    O105    O    0.71506   0.09761   0.88012   1.000
    O106    O    0.21506   0.90239   0.11637   1.000
    O107    O    0.71506   0.90239   0.11637   1.000
    O108    O    0.28494   0.88015   0.90241   1.000
    O109    O    0.78494   0.88015   0.90241   1.000
    O110    O    0.21506   0.11986   0.09758   1.000
    O111    O    0.71506   0.11985   0.09758   1.000
    N112    N    0.25000   0.58313   0.27952   1.000
    O113    O    0.16617   0.58744   0.31414   1.000
    O114    O    0.17818   0.49210   0.30812   1.000
    O115    O    0.27981   0.70644   0.22750   1.000
    O116    O    0.33384   0.58744   0.31415   1.000
    O117    O    0.32182   0.49210   0.30811   1.000
    O118    O    0.22020   0.70643   0.22751   1.000
    N119    N    0.75001   0.58313   0.27952   1.000
    O120    O    0.66617   0.58744   0.31415   1.000
    O121    O    0.67818   0.49210   0.30812   1.000
    O122    O    0.77981   0.70644   0.22750   1.000
    O123    O    0.83384   0.58744   0.31415   1.000
    O124    O    0.82182   0.49210   0.30811   1.000
    O125    O    0.72020   0.70643   0.22751   1.000
    N126    N    0.75000   0.72043   0.58315   1.000
    O127    O    0.72019   0.77248   0.70645   1.000
    O128    O    0.66616   0.68582   0.58744   1.000
    O129    O    0.67818   0.69183   0.49212   1.000
    O130    O    0.77980   0.77248   0.70645   1.000
    O131    O    0.83384   0.68582   0.58745   1.000
    O132    O    0.82182   0.69184   0.49212   1.000
    N133    N    0.99999   0.77951   0.08313   1.000
    O134    O    0.02979   0.72749   0.20644   1.000
    O135    O    0.08383   0.81414   0.08745   1.000
    O136    O    0.92818   0.80813   0.99211   1.000
    O137    O    0.97019   0.72749   0.20645   1.000
    O138    O    0.91616   0.81414   0.08744   1.000
    O139    O    0.07181   0.80813   0.99211   1.000
    N140    N    0.49999   0.77951   0.08313   1.000
    O141    O    0.52979   0.72749   0.20644   1.000
    O142    O    0.42818   0.80813   0.99210   1.000
    O143    O    0.47019   0.72749   0.20644   1.000
    O144    O    0.41616   0.81414   0.08743   1.000
    O145    O    0.58383   0.81414   0.08745   1.000
    O146    O    0.57182   0.80813   0.99211   1.000
    N147    N    0.99998   0.91686   0.77961   1.000
    O148    O    0.07181   0.00789   0.80817   1.000
    O149    O    0.91615   0.91257   0.81420   1.000
    O150    O    0.92817   0.00790   0.80817   1.000
    O151    O    0.97018   0.79356   0.72756   1.000
    O152    O    0.02978   0.79356   0.72755   1.000
    O153    O    0.08383   0.91256   0.81420   1.000
    N154    N    0.49998   0.91686   0.77961   1.000
    O155    O    0.58383   0.91256   0.81420   1.000
    O156    O    0.57181   0.00789   0.80817   1.000
    O157    O    0.41615   0.91257   0.81420   1.000
    O158    O    0.42817   0.00790   0.80817   1.000
    O159    O    0.47018   0.79356   0.72756   1.000
    O160    O    0.52978   0.79356   0.72755   1.000
    N161    N    0.25000   0.27959   0.41683   1.000
    O162    O    0.27981   0.22753   0.29352   1.000
    O163    O    0.33384   0.31419   0.41251   1.000
    O164    O    0.32182   0.30818   0.50786   1.000
    O165    O    0.22020   0.22753   0.29353   1.000
    O166    O    0.16617   0.31419   0.41253   1.000
    O167    O    0.17818   0.30818   0.50786   1.000
    N168    N    0.75001   0.27959   0.41683   1.000
    O169    O    0.77981   0.22753   0.29352   1.000
    O170    O    0.83384   0.31419   0.41251   1.000
    O171    O    0.82182   0.30818   0.50786   1.000
    O172    O    0.72020   0.22753   0.29353   1.000
    O173    O    0.66617   0.31419   0.41253   1.000
    O174    O    0.67818   0.30818   0.50786   1.000
    N175    N    0.25000   0.72043   0.58315   1.000
    O176    O    0.22019   0.77248   0.70646   1.000
    O177    O    0.27980   0.77248   0.70645   1.000
    O178    O    0.16616   0.68582   0.58745   1.000
    O179    O    0.17818   0.69183   0.49212   1.000
    O180    O    0.33383   0.68583   0.58745   1.000
    O181    O    0.32182   0.69184   0.49212   1.000
    N182    N    0.74999   0.41688   0.72046   1.000
    O183    O    0.77980   0.29357   0.77248   1.000
    O184    O    0.83383   0.41257   0.68584   1.000
    O185    O    0.82182   0.50791   0.69186   1.000
    O186    O    0.72019   0.29357   0.77248   1.000
    O187    O    0.66616   0.41257   0.68583   1.000
    O188    O    0.67818   0.50791   0.69183   1.000
    N189    N    0.24999   0.41688   0.72046   1.000
    O190    O    0.27980   0.29357   0.77248   1.000
    O191    O    0.33383   0.41257   0.68584   1.000
    O192    O    0.32182   0.50791   0.69186   1.000
    O193    O    0.22019   0.29357   0.77248   1.000
    O194    O    0.16616   0.41257   0.68582   1.000
    O195    O    0.17817   0.50791   0.69185   1.000
    N196    N    0.00001   0.22050   0.91684   1.000
    O197    O    0.91617   0.18587   0.91253   1.000
    O198    O    0.92819   0.19188   0.00787   1.000
    O199    O    0.07183   0.19188   0.00786   1.000
    O200    O    0.02981   0.27251   0.79354   1.000
    O201    O    0.08384   0.18587   0.91254   1.000
    O202    O    0.97021   0.27251   0.79354   1.000
    N203    N    0.50001   0.22050   0.91684   1.000
    O204    O    0.42819   0.19188   0.00787   1.000
    O205    O    0.58384   0.18587   0.91254   1.000
    O206    O    0.57183   0.19188   0.00786   1.000
    O207    O    0.52981   0.27251   0.79354   1.000
    O208    O    0.47021   0.27251   0.79354   1.000
    O209    O    0.41617   0.18587   0.91253   1.000
    N210    N    0.50002   0.08314   0.22038   1.000
    O211    O    0.47021   0.20645   0.27242   1.000
    O212    O    0.52982   0.20645   0.27243   1.000
    O213    O    0.58385   0.08744   0.18579   1.000
    O214    O    0.41617   0.08744   0.18578   1.000
    O215    O    0.42819   0.99212   0.19180   1.000
    O216    O    0.57183   0.99211   0.19182   1.000
    N217    N    0.00002   0.08314   0.22038   1.000
    O218    O    0.97021   0.20645   0.27242   1.000
    O219    O    0.02982   0.20645   0.27243   1.000
    O220    O    0.08385   0.08744   0.18579   1.000
    O221    O    0.91617   0.08744   0.18578   1.000
    O222    O    0.92819   0.99212   0.19180   1.000
    O223    O    0.07183   0.99211   0.19182   1.000
loop_
    _geom_bond_atom_site_label_1
    _geom_bond_atom_site_label_2
    _geom_bond_distance
    _geom_bond_site_symmetry_2
    _ccdc_geom_bond_type
    Zr46   O64       0.49734      .   S
    Zr62   O64       0.49734      .   S
    Zr47   O65       0.49734      .   S
    Zr63   O65       0.49734      .   S
    Zr62   O66       0.97757      .   S
    Zr28   O66       0.97757      .   S
    Zr63   O67       0.97757      .   S
    Zr29   O67       0.97757      .   S
    Zr58   O68       0.50141      .   S
    Zr42   O68       0.50141      .   S
    Zr58   O69       1.00134      .   S
    Zr24   O69       1.00134      .   S
    Zr59   O70       0.50141      .   S
    Zr43   O70       0.50141      .   S
    Zr59   O71       1.00134      .   S
    Zr25   O71       1.00134      .   S
    Zr1    O72       0.97758      .   S
    Zr49   O72       0.97758      .   S
    Zr0    O73       0.97758      .   S
    Zr48   O73       0.97758      .   S
    Zr22   O74       0.97759      .   S
    Zr53   O74       0.97759      .   S
    Zr23   O75       0.97757      .   S
    Zr52   O75       0.97757      .   S
    Zr33   O76       0.49733      .   S
    Zr49   O76       0.49733      .   S
    Zr32   O77       0.49733      .   S
    Zr48   O77       0.49733      .   S
    Zr53   O78       0.49734      .   S
    Zr37   O78       0.49734      .   S
    Zr52   O79       0.49734      .   S
    Zr36   O79       0.49734      .   S
    Zr38   O80       0.49751      .   S
    Zr54   O80       0.49751      .   S
    Zr39   O81       0.49751      .   S
    Zr55   O81       0.49751      .   S
    Zr55   O82       0.97758      .   S
    Zr7    O82       0.97758      .   S
    Zr54   O83       0.97758  1_455   S
    Zr21   O83       0.97758      .   S
    Zr51   O84       0.49733      .   S
    Zr35   O84       0.49733      .   S
    Zr51   O85       0.97749      .   S
    Zr3    O85       0.97749      .   S
    Zr50   O86       0.49733      .   S
    Zr34   O86       0.49733      .   S
    Zr50   O87       0.97749  1_655   S
    Zr2    O87       0.97749      .   S
    Zr27   O88       0.97761      .   S
    Zr57   O88       0.97761      .   S
    Zr8    O89       0.97760      .   S
    Zr56   O89       0.97760      .   S
    Zr12   O90       0.97757      .   S
    Zr60   O90       0.97757      .   S
    Zr13   O91       0.97756      .   S
    Zr61   O91       0.97756      .   S
    Zr40   O92       0.49732      .   S
    Zr56   O92       0.49732      .   S
    Zr41   O93       0.49732      .   S
    Zr57   O93       0.49732      .   S
    Zr61   O94       0.49734      .   S
    Zr45   O94       0.49734      .   S
    Zr60   O95       0.49734      .   S
    Zr44   O95       0.49734      .   S
    Zr48   O96       0.97777  1_455   S
    Zr19   O96       0.97777      .   S
    Zr49   O97       0.97778      .   S
    Zr18   O97       0.97778      .   S
    Zr50   O98       0.97756      .   S
    Zr17   O98       0.97756      .   S
    Zr51   O99       0.97758      .   S
    Zr16   O99       0.97758      .   S
    Zr52   O100      0.97759  1_655   S
    Zr4    O100      0.97759      .   S
    Zr53   O101      0.97760      .   S
    Zr5    O101      0.97760      .   S
    Zr54   O102      0.97758      .   S
    Zr6    O102      0.97758      .   S
    Zr55   O103      0.97760      .   S
    Zr20   O103      0.97760      .   S
    Zr56   O104      0.97761      .   S
    Zr26   O104      0.97761      .   S
    Zr57   O105      0.97761      .   S
    Zr9    O105      0.97761      .   S
    Zr58   O106      1.00147      .   S
    Zr10   O106      1.00147      .   S
    Zr59   O107      1.00147      .   S
    Zr11   O107      1.00147      .   S
    Zr60   O108      0.97760      .   S
    Zr30   O108      0.97760      .   S
    Zr61   O109      0.97761      .   S
    Zr31   O109      0.97761      .   S
    Zr62   O110      0.97760      .   S
    Zr14   O110      0.97760      .   S
    Zr63   O111      0.97761      .   S
    Zr15   O111      0.97761      .   S
    N112   O113      2.01835      .   S
    Zr4    O113      2.62474      .   S
    N112   O114      2.28892      .   S
    Zr0    O114      3.23557      .   S
    N112   O115      2.31961      .   S
    Zr24   O115      3.30019      .   S
    N112   O116      2.01830      .   S
    Zr22   O116      2.62456      .   S
    N112   O117      2.28893      .   S
    Zr18   O117      3.23545      .   S
    N112   O118      2.31955      .   S
    Zr10   O118      3.30002      .   S
    N119   O120      2.01836      .   S
    Zr5    O120      2.62470      .   S
    N119   O121      2.28891      .   S
    Zr1    O121      3.23556      .   S
    N119   O122      2.31962      .   S
    Zr25   O122      3.30021      .   S
    N119   O123      2.01829      .   S
    Zr23   O123      2.62456      .   S
    N119   O124      2.28892      .   S
    Zr19   O124      3.23545      .   S
    N119   O125      2.31956      .   S
    Zr11   O125      3.30004      .   S
    N126   O127      2.31945      .   S
    Zr13   O127      3.29990      .   S
    N126   O128      2.01822      .   S
    Zr3    O128      2.62419      .   S
    N126   O129      2.28884      .   S
    Zr5    O129      3.23547      .   S
    N126   O130      2.31944      .   S
    Zr31   O130      3.29985      .   S
    N126   O131      2.01829      .   S
    Zr17   O131      2.62447      .   S
    N126   O132      2.28882      .   S
    Zr23   O132      3.23543      .   S
    N133   O134      2.31958  1_655   S
    Zr4    O134      3.30003      .   S
    N133   O135      2.01839  1_655   S
    Zr10   O135      2.62476      .   S
    N133   O136      2.28896  1_554   S
    Zr31   O136      3.23563      .   S
    N133   O137      2.31957      .   S
    Zr23   O137      3.29999      .   S
    N133   O138      2.01830      .   S
    Zr25   O138      2.62443      .   S
    N133   O139      2.28895  1_654   S
    Zr12   O139      3.23561      .   S
    N140   O141      2.31960      .   S
    Zr5    O141      3.30005      .   S
    N140   O142      2.28906  1_554   S
    Zr30   O142      3.23553      .   S
    N140   O143      2.31960      .   S
    Zr22   O143      3.30001      .   S
    N140   O144      2.01831      .   S
    Zr24   O144      2.62445      .   S
    N140   O145      2.01839      .   S
    Zr11   O145      2.62476      .   S
    N140   O146      2.28893  1_554   S
    Zr13   O146      3.23560      .   S
    N147   O148      2.28880  1_665   S
    Zr8    O148      3.23552      .   S
    N147   O149      2.01806      .   S
    Zr31   O149      2.62404      .   S
    N147   O150      2.28871  1_565   S
    Zr27   O150      3.23527      .   S
    N147   O151      2.31939      .   S
    Zr17   O151      3.29977      .   S
    N147   O152      2.31951  1_655   S
    Zr2    O152      3.30012      .   S
    N147   O153      2.01834  1_655   S
    Zr12   O153      2.62459      .   S
    N154   O155      2.01835      .   S
    Zr13   O155      2.62460      .   S
    N154   O156      2.28880  1_565   S
    Zr9    O156      3.23551      .   S
    N154   O157      2.01807      .   S
    Zr30   O157      2.62404      .   S
    N154   O158      2.28872  1_565   S
    Zr26   O158      3.23529      .   S
    N154   O159      2.31940      .   S
    Zr16   O159      3.29977      .   S
    N154   O160      2.31951      .   S
    Zr3    O160      3.30012      .   S
    N161   O162      2.31939      .   S
    Zr28   O162      3.29977      .   S
    N161   O163      2.01820      .   S
    Zr18   O163      2.62447      .   S
    N161   O164      2.28879      .   S
    Zr20   O164      3.23561      .   S
    N161   O165      2.31936      .   S
    Zr14   O165      3.29973      .   S
    N161   O166      2.01829      .   S
    Zr0    O166      2.62439      .   S
    N161   O167      2.28888      .   S
    Zr6    O167      3.23553      .   S
    N168   O169      2.31939      .   S
    Zr29   O169      3.29978      .   S
    N168   O170      2.01821      .   S
    Zr19   O170      2.62447      .   S
    N168   O171      2.28879      .   S
    Zr21   O171      3.23562      .   S
    N168   O172      2.31936      .   S
    Zr15   O172      3.29974      .   S
    N168   O173      2.01828      .   S
    Zr1    O173      2.62439      .   S
    N168   O174      2.28888      .   S
    Zr7    O174      3.23553      .   S
    N175   O176      2.31943      .   S
    Zr12   O176      3.29987      .   S
    N175   O177      2.31941      .   S
    Zr30   O177      3.29982      .   S
    N175   O178      2.01823      .   S
    Zr2    O178      2.62420      .   S
    N175   O179      2.28886      .   S
    Zr4    O179      3.23549      .   S
    N175   O180      2.01828      .   S
    Zr16   O180      2.62446      .   S
    N175   O181      2.28883      .   S
    Zr22   O181      3.23544      .   S
    N182   O183      2.31960      .   S
    Zr27   O183      3.30011      .   S
    N182   O184      2.01834      .   S
    Zr21   O184      2.62469      .   S
    N182   O185      2.28890      .   S
    Zr17   O185      3.23554      .   S
    N182   O186      2.31959      .   S
    Zr9    O186      3.30007      .   S
    N182   O187      2.01826      .   S
    Zr7    O187      2.62452      .   S
    N182   O188      2.28905      .   S
    Zr3    O188      3.23559      .   S
    N189   O190      2.31959      .   S
    Zr26   O190      3.30010      .   S
    N189   O191      2.01834      .   S
    Zr20   O191      2.62469      .   S
    N189   O192      2.28890      .   S
    Zr16   O192      3.23554      .   S
    N189   O193      2.31959      .   S
    Zr8    O193      3.30005      .   S
    N189   O194      2.01833      .   S
    Zr6    O194      2.62445      .   S
    N189   O195      2.28897      .   S
    Zr2    O195      3.23569      .   S
    N196   O197      2.01839  1_455   S
    Zr27   O197      2.62472      .   S
    N196   O198      2.28900  1_456   S
    Zr29   O198      3.23570      .   S
    N196   O199      2.28891  1_556   S
    Zr14   O199      3.23583      .   S
    N196   O200      2.31946      .   S
    Zr6    O200      3.29988      .   S
    N196   O201      2.01830      .   S
    Zr8    O201      2.62455      .   S
    N196   O202      2.31946  1_455   S
    Zr21   O202      3.29992      .   S
    N203   O204      2.28901  1_556   S
    Zr28   O204      3.23571      .   S
    N203   O205      2.01830      .   S
    Zr9    O205      2.62454      .   S
    N203   O206      2.28891  1_556   S
    Zr15   O206      3.23583      .   S
    N203   O207      2.31947      .   S
    Zr7    O207      3.29988      .   S
    N203   O208      2.31947      .   S
    Zr20   O208      3.29992      .   S
    N203   O209      2.01840      .   S
    Zr26   O209      2.62474      .   S
    N210   O211      2.31939      .   S
    Zr18   O211      3.29966      .   S
    N210   O212      2.31943      .   S
    Zr1    O212      3.29982      .   S
    N210   O213      2.01807      .   S
    Zr15   O213      2.62405      .   S
    N210   O214      2.01836      .   S
    Zr28   O214      2.62448      .   S
    N210   O215      2.28886  1_545   S
    Zr24   O215      3.23558      .   S
    N210   O216      2.28872  1_545   S
    Zr11   O216      3.23527      .   S
    N217   O218      2.31938  1_455   S
    Zr19   O218      3.29965      .   S
    N217   O219      2.31942      .   S
    Zr0    O219      3.29981      .   S
    N217   O220      2.01807      .   S
    Zr14   O220      2.62406      .   S
    N217   O221      2.01832  1_455   S
    Zr29   O221      2.62452      .   S
    N217   O222      2.28885  1_445   S
    Zr25   O222      3.23557      .   S
    N217   O223      2.28872  1_545   S
    Zr10   O223      3.23528      .   S
