# CIF file generated by openbabel 2.4.90, see http://openbabel.sf.net
data_I
_chemical_name_common 'VESTA_phase_1'
_cell_length_a 9.647
_cell_length_b 19.512
_cell_length_c 23.029
_cell_angle_alpha 89.998
_cell_angle_beta 93.397
_cell_angle_gamma 89.999
_space_group_name_H-M_alt 'P 1'
_space_group_name_Hall 'P 1'
loop_
    _symmetry_equiv_pos_as_xyz
    x,y,z
loop_
    _atom_site_label
    _atom_site_type_symbol
    _atom_site_fract_x
    _atom_site_fract_y
    _atom_site_fract_z
    _atom_site_occupancy
    Cd0     Cd   0.00009   0.99999   0.49999   1.000
    Cd1     Cd   0.00008   0.50000   0.49999   1.000
    Cd2     Cd   0.50010   0.99999   0.49999   1.000
    Cd3     Cd   0.50009   0.50000   0.49999   1.000
    Cd4     Cd   0.00004   0.25000   0.00000   1.000
    Cd5     Cd   0.00004   0.75001   0.99999   1.000
    Cd6     Cd   0.50005   0.25000   0.00000   1.000
    Cd7     Cd   0.50006   0.75001   0.99999   1.000
    As8     As   0.27760   0.43460   0.59650   1.000
    As9     As   0.27762   0.93460   0.59651   1.000
    As10    As   0.77761   0.43460   0.59650   1.000
    As11    As   0.77764   0.93460   0.59651   1.000
    As12    As   0.22250   0.18459   0.90346   1.000
    As13    As   0.22251   0.68460   0.90346   1.000
    As14    As   0.72251   0.18459   0.90346   1.000
    As15    As   0.72252   0.68460   0.90346   1.000
    As16    As   0.22254   0.06540   0.40347   1.000
    As17    As   0.22254   0.56541   0.40347   1.000
    As18    As   0.72255   0.06540   0.40347   1.000
    As19    As   0.72255   0.56541   0.40347   1.000
    As20    As   0.27756   0.31540   0.09650   1.000
    As21    As   0.27756   0.81540   0.09650   1.000
    As22    As   0.77757   0.31540   0.09650   1.000
    As23    As   0.77758   0.81540   0.09650   1.000
    H24     H    0.39483   0.02886   0.87074   1.000
    H25     H    0.39483   0.52886   0.87074   1.000
    H26     H    0.89484   0.02886   0.87074   1.000
    H27     H    0.89485   0.52887   0.87074   1.000
    H28     H    0.06288   0.38243   0.58111   1.000
    H29     H    0.06290   0.88243   0.58111   1.000
    H30     H    0.56289   0.38243   0.58111   1.000
    H31     H    0.56291   0.88243   0.58111   1.000
    H32     H    0.32763   0.32340   0.91079   1.000
    H33     H    0.32764   0.82341   0.91079   1.000
    H34     H    0.82764   0.32340   0.91079   1.000
    H35     H    0.82765   0.82341   0.91079   1.000
    H36     H    0.48162   0.36843   0.68305   1.000
    H37     H    0.48164   0.86843   0.68305   1.000
    H38     H    0.98163   0.36843   0.68305   1.000
    H39     H    0.98165   0.86843   0.68305   1.000
    H40     H    0.05034   0.38877   0.78525   1.000
    H41     H    0.05036   0.88877   0.78526   1.000
    H42     H    0.55034   0.38877   0.78520   1.000
    H43     H    0.55037   0.88877   0.78526   1.000
    H44     H    0.26169   0.05891   0.78749   1.000
    H45     H    0.26170   0.55891   0.78749   1.000
    H46     H    0.76171   0.05891   0.78749   1.000
    H47     H    0.76172   0.55891   0.78749   1.000
    H48     H    0.18964   0.03690   0.68530   1.000
    H49     H    0.18964   0.53691   0.68530   1.000
    H50     H    0.68966   0.03691   0.68530   1.000
    H51     H    0.68966   0.53691   0.68534   1.000
    H52     H    0.14049   0.43823   0.86707   1.000
    H53     H    0.14049   0.93824   0.86708   1.000
    H54     H    0.64050   0.43823   0.86707   1.000
    H55     H    0.64051   0.93823   0.86707   1.000
    H56     H    0.07938   0.48227   0.92643   1.000
    H57     H    0.07938   0.98228   0.92643   1.000
    H58     H    0.57938   0.48227   0.92643   1.000
    H59     H    0.57939   0.98228   0.92643   1.000
    H60     H    0.10524   0.27886   0.62922   1.000
    H61     H    0.10525   0.77886   0.62920   1.000
    H62     H    0.60526   0.27886   0.62922   1.000
    H63     H    0.60527   0.77886   0.62920   1.000
    H64     H    0.43723   0.13243   0.91880   1.000
    H65     H    0.43724   0.63243   0.91885   1.000
    H66     H    0.93724   0.13243   0.91880   1.000
    H67     H    0.93725   0.63243   0.91885   1.000
    H68     H    0.17250   0.07342   0.58917   1.000
    H69     H    0.17250   0.57342   0.58917   1.000
    H70     H    0.67251   0.07341   0.58917   1.000
    H71     H    0.67251   0.57342   0.58917   1.000
    H72     H    0.01848   0.11843   0.81692   1.000
    H73     H    0.01848   0.61844   0.81692   1.000
    H74     H    0.51849   0.11843   0.81692   1.000
    H75     H    0.51850   0.61844   0.81692   1.000
    H76     H    0.44975   0.13876   0.71472   1.000
    H77     H    0.44976   0.63877   0.71472   1.000
    H78     H    0.94976   0.13876   0.71472   1.000
    H79     H    0.94976   0.63877   0.71472   1.000
    H80     H    0.23837   0.30891   0.71246   1.000
    H81     H    0.23838   0.80891   0.71246   1.000
    H82     H    0.73839   0.30890   0.71246   1.000
    H83     H    0.73840   0.80891   0.71246   1.000
    H84     H    0.31044   0.28691   0.81461   1.000
    H85     H    0.31045   0.78691   0.81461   1.000
    H86     H    0.81046   0.28691   0.81461   1.000
    H87     H    0.81047   0.78691   0.81461   1.000
    H88     H    0.35961   0.18821   0.63289   1.000
    H89     H    0.35962   0.68822   0.63289   1.000
    H90     H    0.85962   0.18821   0.63289   1.000
    H91     H    0.85962   0.68822   0.63289   1.000
    H92     H    0.42070   0.23227   0.57353   1.000
    H93     H    0.42071   0.73227   0.57353   1.000
    H94     H    0.92070   0.23227   0.57353   1.000
    H95     H    0.92072   0.73227   0.57353   1.000
    H96     H    0.10523   0.47113   0.12923   1.000
    H97     H    0.10524   0.97113   0.12920   1.000
    H98     H    0.60524   0.47114   0.12923   1.000
    H99     H    0.60526   0.97113   0.12920   1.000
    H100    H    0.43726   0.11757   0.41886   1.000
    H101    H    0.43726   0.61757   0.41886   1.000
    H102    H    0.93727   0.11757   0.41886   1.000
    H103    H    0.93727   0.61757   0.41886   1.000
    H104    H    0.17245   0.17659   0.08918   1.000
    H105    H    0.17245   0.67659   0.08918   1.000
    H106    H    0.67246   0.17659   0.08918   1.000
    H107    H    0.67247   0.67659   0.08918   1.000
    H108    H    0.01849   0.13157   0.31693   1.000
    H109    H    0.01850   0.63157   0.31693   1.000
    H110    H    0.51850   0.13157   0.31693   1.000
    H111    H    0.51851   0.63158   0.31693   1.000
    H112    H    0.44974   0.11123   0.21473   1.000
    H113    H    0.44975   0.61124   0.21473   1.000
    H114    H    0.94976   0.11123   0.21473   1.000
    H115    H    0.94976   0.61123   0.21473   1.000
    H116    H    0.23837   0.44109   0.21248   1.000
    H117    H    0.23839   0.94109   0.21248   1.000
    H118    H    0.73839   0.44109   0.21248   1.000
    H119    H    0.73841   0.94109   0.21248   1.000
    H120    H    0.31046   0.46309   0.31462   1.000
    H121    H    0.31047   0.96309   0.31462   1.000
    H122    H    0.81048   0.46309   0.31462   1.000
    H123    H    0.81049   0.96309   0.31462   1.000
    H124    H    0.35959   0.06177   0.13291   1.000
    H125    H    0.35959   0.56178   0.13291   1.000
    H126    H    0.85960   0.06177   0.13290   1.000
    H127    H    0.85960   0.56178   0.13291   1.000
    H128    H    0.42068   0.01772   0.07355   1.000
    H129    H    0.42069   0.51773   0.07355   1.000
    H130    H    0.92070   0.01772   0.07355   1.000
    H131    H    0.92070   0.51773   0.07355   1.000
    H132    H    0.39487   0.22114   0.37076   1.000
    H133    H    0.39488   0.72115   0.37076   1.000
    H134    H    0.89487   0.22114   0.37076   1.000
    H135    H    0.89489   0.72115   0.37076   1.000
    H136    H    0.06283   0.36757   0.08112   1.000
    H137    H    0.06283   0.86757   0.08112   1.000
    H138    H    0.56284   0.36757   0.08112   1.000
    H139    H    0.56285   0.86757   0.08112   1.000
    H140    H    0.32769   0.42661   0.41080   1.000
    H141    H    0.32772   0.92661   0.41080   1.000
    H142    H    0.82770   0.42661   0.41080   1.000
    H143    H    0.82773   0.92661   0.41080   1.000
    H144    H    0.48158   0.38157   0.18305   1.000
    H145    H    0.48159   0.88157   0.18305   1.000
    H146    H    0.98159   0.38157   0.18305   1.000
    H147    H    0.98160   0.88157   0.18305   1.000
    H148    H    0.05033   0.36124   0.28525   1.000
    H149    H    0.05034   0.86125   0.28525   1.000
    H150    H    0.55034   0.36124   0.28525   1.000
    H151    H    0.55035   0.86124   0.28525   1.000
    H152    H    0.26171   0.19109   0.28750   1.000
    H153    H    0.26172   0.69110   0.28752   1.000
    H154    H    0.76173   0.19109   0.28750   1.000
    H155    H    0.76174   0.69110   0.28752   1.000
    H156    H    0.18962   0.21309   0.18537   1.000
    H157    H    0.18963   0.71310   0.18537   1.000
    H158    H    0.68964   0.21309   0.18537   1.000
    H159    H    0.68965   0.71309   0.18537   1.000
    H160    H    0.14052   0.31177   0.36700   1.000
    H161    H    0.14054   0.81177   0.36706   1.000
    H162    H    0.64053   0.31177   0.36706   1.000
    H163    H    0.64055   0.81178   0.36706   1.000
    H164    H    0.07944   0.26772   0.42643   1.000
    H165    H    0.07947   0.76773   0.42643   1.000
    H166    H    0.57946   0.26772   0.42643   1.000
    H167    H    0.57948   0.76773   0.42642   1.000
    C168    C    0.33210   0.45158   0.67678   1.000
    C169    C    0.33212   0.95159   0.67678   1.000
    C170    C    0.83211   0.45158   0.67678   1.000
    C171    C    0.83214   0.95159   0.67678   1.000
    C172    C    0.43294   0.41021   0.70569   1.000
    C173    C    0.43296   0.91022   0.70569   1.000
    C174    C    0.93295   0.41021   0.70569   1.000
    C175    C    0.93298   0.91022   0.70569   1.000
    C176    C    0.47199   0.42184   0.76394   1.000
    C177    C    0.47201   0.92184   0.76390   1.000
    C178    C    0.97200   0.42183   0.76394   1.000
    C179    C    0.97202   0.92184   0.76390   1.000
    C180    C    0.41249   0.47633   0.79445   1.000
    C181    C    0.41250   0.97633   0.79445   1.000
    C182    C    0.91251   0.47633   0.79445   1.000
    C183    C    0.91252   0.97633   0.79445   1.000
    C184    C    0.30977   0.01709   0.76459   1.000
    C185    C    0.30978   0.51709   0.76459   1.000
    C186    C    0.80979   0.01709   0.76459   1.000
    C187    C    0.80980   0.51709   0.76459   1.000
    C188    C    0.26954   0.50482   0.70678   1.000
    C189    C    0.26956   0.00000   0.70678   1.000
    C190    C    0.76956   0.50482   0.70670   1.000
    C191    C    0.76958   0.00000   0.70670   1.000
    C192    C    0.04478   0.45147   0.88800   1.000
    C193    C    0.04479   0.95148   0.88830   1.000
    C194    C    0.54479   0.45147   0.88800   1.000
    C195    C    0.54480   0.95148   0.88830   1.000
    C196    C    0.98692   0.38454   0.91133   1.000
    C197    C    0.98693   0.88454   0.91133   1.000
    C198    C    0.48693   0.38454   0.91133   1.000
    C199    C    0.48694   0.88454   0.91133   1.000
    C200    C    0.16799   0.20158   0.82318   1.000
    C201    C    0.16800   0.70159   0.82318   1.000
    C202    C    0.66801   0.20158   0.82318   1.000
    C203    C    0.66801   0.70159   0.82318   1.000
    C204    C    0.06715   0.16021   0.79420   1.000
    C205    C    0.06716   0.66022   0.79427   1.000
    C206    C    0.56716   0.16021   0.79427   1.000
    C207    C    0.56717   0.66022   0.79427   1.000
    C208    C    0.02809   0.17184   0.73602   1.000
    C209    C    0.02810   0.67184   0.73602   1.000
    C210    C    0.52810   0.17184   0.73602   1.000
    C211    C    0.52811   0.67184   0.73602   1.000
    C212    C    0.08758   0.22633   0.70550   1.000
    C213    C    0.08759   0.72633   0.70550   1.000
    C214    C    0.58760   0.22633   0.70551   1.000
    C215    C    0.58761   0.72633   0.70551   1.000
    C216    C    0.19029   0.26709   0.73537   1.000
    C217    C    0.19030   0.76710   0.73537   1.000
    C218    C    0.69031   0.26709   0.73537   1.000
    C219    C    0.69032   0.76710   0.73537   1.000
    C220    C    0.23054   0.25482   0.79318   1.000
    C221    C    0.23055   0.75483   0.79318   1.000
    C222    C    0.73056   0.25482   0.79318   1.000
    C223    C    0.73057   0.75482   0.79318   1.000
    C224    C    0.45531   0.20147   0.61160   1.000
    C225    C    0.45532   0.70148   0.61166   1.000
    C226    C    0.95532   0.20147   0.61166   1.000
    C227    C    0.95533   0.70147   0.61166   1.000
    C228    C    0.51320   0.13454   0.58863   1.000
    C229    C    0.51320   0.63454   0.58863   1.000
    C230    C    0.00000   0.13454   0.58863   1.000
    C231    C    0.00000   0.63454   0.58863   1.000
    C232    C    0.16801   0.04841   0.32319   1.000
    C233    C    0.16802   0.54842   0.32319   1.000
    C234    C    0.66803   0.04841   0.32319   1.000
    C235    C    0.66803   0.54842   0.32319   1.000
    C236    C    0.06716   0.08979   0.29420   1.000
    C237    C    0.06717   0.58979   0.29420   1.000
    C238    C    0.56718   0.08979   0.29420   1.000
    C239    C    0.56718   0.58979   0.29420   1.000
    C240    C    0.02809   0.07816   0.23604   1.000
    C241    C    0.02810   0.57817   0.23600   1.000
    C242    C    0.52811   0.07816   0.23604   1.000
    C243    C    0.52812   0.57817   0.23600   1.000
    C244    C    0.08758   0.02367   0.20553   1.000
    C245    C    0.08759   0.52367   0.20553   1.000
    C246    C    0.58760   0.02367   0.20553   1.000
    C247    C    0.58760   0.52367   0.20553   1.000
    C248    C    0.19030   0.48291   0.23538   1.000
    C249    C    0.19031   0.98291   0.23538   1.000
    C250    C    0.69032   0.48291   0.23538   1.000
    C251    C    0.69033   0.98291   0.23538   1.000
    C252    C    0.23055   0.99518   0.29300   1.000
    C253    C    0.23056   0.49518   0.29300   1.000
    C254    C    0.73057   0.99518   0.29319   1.000
    C255    C    0.73057   0.49518   0.29319   1.000
    C256    C    0.45530   0.04852   0.11168   1.000
    C257    C    0.45529   0.54853   0.11168   1.000
    C258    C    0.95531   0.04852   0.11168   1.000
    C259    C    0.95531   0.54853   0.11168   1.000
    C260    C    0.51317   0.11546   0.08864   1.000
    C261    C    0.51317   0.61546   0.08864   1.000
    C262    C    0.00000   0.11546   0.08864   1.000
    C263    C    0.00000   0.61546   0.08864   1.000
    C264    C    0.33207   0.29841   0.17679   1.000
    C265    C    0.33208   0.79842   0.17679   1.000
    C266    C    0.83209   0.29841   0.17679   1.000
    C267    C    0.83210   0.79842   0.17679   1.000
    C268    C    0.43291   0.33979   0.20569   1.000
    C269    C    0.43292   0.83979   0.20569   1.000
    C270    C    0.93293   0.33979   0.20500   1.000
    C271    C    0.93294   0.83979   0.20569   1.000
    C272    C    0.47198   0.32817   0.26390   1.000
    C273    C    0.47199   0.82817   0.26394   1.000
    C274    C    0.97200   0.32816   0.26390   1.000
    C275    C    0.97201   0.82817   0.26394   1.000
    C276    C    0.41250   0.27368   0.29446   1.000
    C277    C    0.41251   0.77368   0.29446   1.000
    C278    C    0.91251   0.27368   0.29446   1.000
    C279    C    0.91252   0.77368   0.29446   1.000
    C280    C    0.30978   0.23291   0.26461   1.000
    C281    C    0.30979   0.73292   0.26461   1.000
    C282    C    0.80980   0.23291   0.26461   1.000
    C283    C    0.80981   0.73291   0.26461   1.000
    C284    C    0.26953   0.24518   0.20600   1.000
    C285    C    0.26953   0.74518   0.20680   1.000
    C286    C    0.76954   0.24518   0.20679   1.000
    C287    C    0.76955   0.74518   0.20600   1.000
    C288    C    0.04482   0.29853   0.38830   1.000
    C289    C    0.04485   0.79853   0.38830   1.000
    C290    C    0.54484   0.29853   0.38830   1.000
    C291    C    0.54486   0.79853   0.38830   1.000
    C292    C    0.98698   0.36547   0.41134   1.000
    C293    C    0.98701   0.86547   0.41134   1.000
    C294    C    0.48699   0.36546   0.41134   1.000
    C295    C    0.48702   0.86547   0.41134   1.000
    N296    N    0.45215   0.49221   0.85107   1.000
    N297    N    0.45216   0.99222   0.85107   1.000
    N298    N    0.95217   0.49221   0.85107   1.000
    N299    N    0.95218   0.99222   0.85107   1.000
    N300    N    0.04791   0.24222   0.64889   1.000
    N301    N    0.04792   0.74222   0.64889   1.000
    N302    N    0.54793   0.24221   0.64889   1.000
    N303    N    0.54794   0.74222   0.64889   1.000
    N304    N    0.04791   0.00778   0.14891   1.000
    N305    N    0.04791   0.50779   0.14891   1.000
    N306    N    0.54792   0.00778   0.14891   1.000
    N307    N    0.54792   0.50779   0.14891   1.000
    N308    N    0.45218   0.25779   0.35108   1.000
    N309    N    0.45219   0.75780   0.35108   1.000
    N310    N    0.95219   0.25779   0.35108   1.000
    N311    N    0.95221   0.75780   0.35108   1.000
    O312    O    0.41558   0.41140   0.55740   1.000
    O313    O    0.41560   0.91140   0.55740   1.000
    O314    O    0.91559   0.41140   0.55740   1.000
    O315    O    0.91561   0.91140   0.55741   1.000
    O316    O    0.15975   0.36352   0.59259   1.000
    O317    O    0.15977   0.86352   0.59250   1.000
    O318    O    0.65976   0.36352   0.59250   1.000
    O319    O    0.65978   0.86352   0.59259   1.000
    O320    O    0.18727   0.50320   0.56688   1.000
    O321    O    0.18729   0.00000   0.56688   1.000
    O322    O    0.68728   0.50320   0.56688   1.000
    O323    O    0.68730   0.00000   0.56688   1.000
    O324    O    0.35663   0.37160   0.89514   1.000
    O325    O    0.35664   0.87160   0.89514   1.000
    O326    O    0.85664   0.37160   0.89514   1.000
    O327    O    0.85665   0.87160   0.89514   1.000
    O328    O    0.06400   0.34720   0.94268   1.000
    O329    O    0.06401   0.84720   0.94268   1.000
    O330    O    0.56401   0.34720   0.94268   1.000
    O331    O    0.56402   0.84721   0.94268   1.000
    O332    O    0.08453   0.16140   0.94255   1.000
    O333    O    0.08454   0.66140   0.94255   1.000
    O334    O    0.58454   0.16140   0.94255   1.000
    O335    O    0.58455   0.66140   0.94255   1.000
    O336    O    0.34036   0.11352   0.90738   1.000
    O337    O    0.34037   0.61352   0.90738   1.000
    O338    O    0.84037   0.11352   0.90738   1.000
    O339    O    0.84038   0.61352   0.90738   1.000
    O340    O    0.31284   0.25319   0.93309   1.000
    O341    O    0.31285   0.75319   0.93309   1.000
    O342    O    0.81285   0.25319   0.93309   1.000
    O343    O    0.81286   0.75319   0.93309   1.000
    O344    O    0.14350   0.12161   0.60483   1.000
    O345    O    0.14350   0.62161   0.60483   1.000
    O346    O    0.64351   0.12161   0.60483   1.000
    O347    O    0.64351   0.62161   0.60483   1.000
    O348    O    0.43614   0.09720   0.55728   1.000
    O349    O    0.43614   0.59720   0.55728   1.000
    O350    O    0.93616   0.09720   0.55728   1.000
    O351    O    0.93615   0.59721   0.55728   1.000
    O352    O    0.08456   0.08859   0.44256   1.000
    O353    O    0.08456   0.58860   0.44256   1.000
    O354    O    0.58458   0.08859   0.44256   1.000
    O355    O    0.58457   0.58860   0.44256   1.000
    O356    O    0.34039   0.13648   0.40738   1.000
    O357    O    0.34039   0.63648   0.40738   1.000
    O358    O    0.84040   0.13648   0.40730   1.000
    O359    O    0.84040   0.63649   0.40730   1.000
    O360    O    0.31289   0.99681   0.43310   1.000
    O361    O    0.31288   0.49681   0.43310   1.000
    O362    O    0.81290   0.99681   0.43310   1.000
    O363    O    0.81289   0.49681   0.43310   1.000
    O364    O    0.14345   0.12839   0.10484   1.000
    O365    O    0.14346   0.62840   0.10484   1.000
    O366    O    0.64347   0.12839   0.10484   1.000
    O367    O    0.64347   0.62839   0.10484   1.000
    O368    O    0.43609   0.15279   0.05730   1.000
    O369    O    0.43610   0.65280   0.05729   1.000
    O370    O    0.93610   0.15280   0.05730   1.000
    O371    O    0.93611   0.65280   0.05729   1.000
    O372    O    0.41553   0.33860   0.05742   1.000
    O373    O    0.41554   0.83860   0.05742   1.000
    O374    O    0.91554   0.33860   0.05742   1.000
    O375    O    0.91555   0.83860   0.05742   1.000
    O376    O    0.15970   0.38648   0.09200   1.000
    O377    O    0.15970   0.88648   0.09259   1.000
    O378    O    0.65971   0.38648   0.09200   1.000
    O379    O    0.65972   0.88648   0.09200   1.000
    O380    O    0.18723   0.24680   0.06689   1.000
    O381    O    0.18723   0.74681   0.06689   1.000
    O382    O    0.68724   0.24680   0.06689   1.000
    O383    O    0.68725   0.74681   0.06689   1.000
    O384    O    0.35669   0.37841   0.39515   1.000
    O385    O    0.35672   0.87841   0.39515   1.000
    O386    O    0.85671   0.37841   0.39515   1.000
    O387    O    0.85674   0.87842   0.39515   1.000
    O388    O    0.06408   0.40279   0.44268   1.000
    O389    O    0.06411   0.90280   0.44268   1.000
    O390    O    0.56409   0.40279   0.44268   1.000
    O391    O    0.56412   0.90279   0.44268   1.000
loop_
    _geom_bond_atom_site_label_1
    _geom_bond_atom_site_label_2
    _geom_bond_distance
    _geom_bond_site_symmetry_2
    _ccdc_geom_bond_type
    Cd4    O370      2.41152  1_455   S
    Cd4    O374      2.35138  1_455   S
    Cd4    O380      2.30394      .   S
    Cd4    O342      2.30418  1_454   S
    Cd4    O332      2.35193  1_554   S
    Cd4    O328      2.41177  1_554   S
    Cd6    O368      2.41162      .   S
    Cd6    O372      2.35146      .   S
    Cd6    O382      2.30394      .   S
    Cd6    O340      2.30437  1_554   S
    Cd6    O334      2.35191  1_554   S
    Cd6    O330      2.41177  1_554   S
    O371   C263      1.17429  1_655   S
    O371   Cd5       2.41159  1_654   S
    O369   C261      1.24137      .   S
    O369   Cd7       2.41167  1_554   S
    O370   C262      1.17426  1_655   S
    O368   C260      1.24130      .   S
    O375   As23      1.71124      .   S
    O375   Cd5       2.35152  1_654   S
    O374   As22      1.71123      .   S
    O373   As21      1.71125      .   S
    O373   Cd7       2.35160  1_554   S
    O372   As20      1.71124      .   S
    O381   As21      1.71628      .   S
    O381   Cd5       2.30406  1_554   S
    O380   As20      1.71630      .   S
    O382   As22      1.71629      .   S
    O383   As23      1.71629      .   S
    O383   Cd7       2.30407  1_554   S
    H129   C257      1.09951      .   S
    H128   C256      1.09954      .   S
    H130   C258      1.09954      .   S
    H131   C259      1.09950      .   S
    H139   O379      1.02201      .   S
    H138   O378      1.02201      .   S
    H136   O376      1.02201      .   S
    H137   O377      1.02469      .   S
    C261   O367      1.31432      .   S
    C261   C257      1.52773      .   S
    C263   O365      1.43422      .   S
    C263   C259      1.48330  1_455   S
    C260   O366      1.31430      .   S
    C260   C256      1.52773      .   S
    C262   O364      1.43418      .   S
    C262   C258      1.48332  1_455   S
    H104   O364      1.05105      .   S
    H105   O365      1.05103      .   S
    H106   O366      1.05105      .   S
    H107   O367      1.05105      .   S
    O379   As23      1.79245      .   S
    O378   As22      1.79245      .   S
    O376   As20      1.79244      .   S
    O377   As21      1.79222      .   S
    C259   H127      1.10082      .   S
    C259   N305      1.44026  1_655   S
    C258   H126      1.10069      .   S
    C258   N304      1.44021  1_655   S
    C257   H125      1.10081      .   S
    C257   N307      1.44039      .   S
    C256   H124      1.10080      .   S
    C256   N306      1.44037      .   S
    H97    N304      1.02616  1_565   S
    H99    N306      1.02616  1_565   S
    H98    N307      1.02579      .   S
    H96    N305      1.02580      .   S
    N306   C246      1.37246      .   S
    N304   C244      1.37246      .   S
    N305   C245      1.37246      .   S
    N307   C247      1.37247      .   S
    C264   C268      1.40159      .   S
    C264   C284      1.39409      .   S
    C265   C269      1.40159      .   S
    C265   C285      1.40354      .   S
    C266   C270      1.39476      .   S
    C266   C286      1.40344      .   S
    C267   C271      1.40157      .   S
    C267   C287      1.39409      .   S
    H144   C268      1.08895      .   S
    H146   C270      1.08102      .   S
    H145   C269      1.08895      .   S
    H147   C271      1.08895      .   S
    H156   C284      1.08100      .   S
    H157   C285      1.08846      .   S
    H158   C286      1.08835      .   S
    H159   C287      1.08101      .   S
    C270   C274      1.40454      .   S
    C247   C250      1.41648      .   S
    C247   C243      1.41419      .   S
    C246   C251      1.41652  1_545   S
    C246   C242      1.41466      .   S
    C245   C248      1.41645      .   S
    C245   C241      1.41418      .   S
    C244   C249      1.41652  1_545   S
    C244   C240      1.41465      .   S
    C268   C272      1.38945      .   S
    C269   C273      1.39032      .   S
    C271   C275      1.39033      .   S
    C284   C280      1.40276      .   S
    C287   C283      1.40277      .   S
    C286   C282      1.38557      .   S
    C285   C281      1.38535      .   S
    H116   C248      1.08996      .   S
    H117   C249      1.08993      .   S
    H118   C250      1.08994      .   S
    H119   C251      1.08993      .   S
    H112   C242      1.08845      .   S
    H113   C243      1.08805      .   S
    H114   C240      1.08828  1_655   S
    H115   C241      1.08789  1_655   S
    C251   C254      1.38534      .   S
    C250   C255      1.38537      .   S
    C249   C252      1.38122      .   S
    C248   C253      1.38124      .   S
    C243   C239      1.38925      .   S
    C241   C237      1.38925      .   S
    C242   C238      1.38839      .   S
    C240   C236      1.38840      .   S
    C274   H148      1.08867  1_655   S
    C274   C278      1.41518      .   S
    C272   H150      1.08885      .   S
    C272   C276      1.41519      .   S
    C273   H151      1.08847      .   S
    C273   C277      1.41470      .   S
    C275   H149      1.08831  1_655   S
    C275   C279      1.41470      .   S
    C282   H154      1.08976      .   S
    C282   C278      1.41650      .   S
    C283   H155      1.08998      .   S
    C283   C279      1.41652      .   S
    C280   H152      1.08975      .   S
    C280   C276      1.41652      .   S
    C281   H153      1.08998      .   S
    C281   C277      1.41653      .   S
    C252   H121      1.09028      .   S
    C252   C232      1.40576  1_565   S
    C253   H120      1.09020      .   S
    C253   C233      1.40578      .   S
    C254   H123      1.08846      .   S
    C254   C234      1.40350  1_565   S
    C255   H122      1.08840      .   S
    C255   C235      1.40351      .   S
    C236   H108      1.09005      .   S
    C236   C232      1.40245      .   S
    C239   H111      1.09007      .   S
    C239   C235      1.40245      .   S
    C238   H110      1.09006      .   S
    C238   C234      1.40245      .   S
    C237   H109      1.09007      .   S
    C237   C233      1.40245      .   S
    C279   N311      1.37244      .   S
    C278   N310      1.37242      .   S
    C277   N309      1.37245      .   S
    C276   N308      1.37244      .   S
    N311   H135      1.02573      .   S
    N311   C289      1.44025  1_655   S
    N310   H134      1.02575      .   S
    N310   C288      1.44023  1_655   S
    N309   H133      1.02572      .   S
    N309   C291      1.44041      .   S
    N308   H132      1.02573      .   S
    N308   C290      1.44038      .   S
    H160   C288      1.10150      .   S
    H163   C291      1.10078      .   S
    H162   C290      1.10080      .   S
    H161   C289      1.10080      .   S
    C288   C292      1.52773  1_455   S
    C288   H164      1.09955      .   S
    C289   C293      1.52770  1_455   S
    C289   H165      1.09956      .   S
    C290   C294      1.52771      .   S
    C290   H166      1.09956      .   S
    C291   C295      1.52769      .   S
    C291   H167      1.09940      .   S
    O384   H140      1.05097      .   S
    O384   C294      1.31427      .   S
    O385   H141      1.05097      .   S
    O385   C295      1.31427      .   S
    O386   H142      1.05097      .   S
    O386   C292      1.31404      .   S
    O387   H143      1.05097      .   S
    O387   C293      1.31405      .   S
    As19   O359      1.79221      .   S
    As19   O363      1.71642      .   S
    As19   O355      1.71139      .   S
    As18   O358      1.79220      .   S
    As18   O362      1.71641  1_545   S
    As18   O354      1.71138      .   S
    As17   O357      1.79224      .   S
    As17   O361      1.71643      .   S
    As17   O353      1.71137      .   S
    As16   O356      1.79224      .   S
    As16   O360      1.71641  1_545   S
    As16   O352      1.71137      .   S
    O359   H103      1.02510      .   S
    O358   H102      1.02510      .   S
    O357   H101      1.02472      .   S
    O356   H100      1.02472      .   S
    C294   O390      1.24137      .   S
    C292   O388      1.24137  1_655   S
    C293   O389      1.24138  1_655   S
    C295   O391      1.24136      .   S
    O362   Cd0       2.30393  1_655   S
    O363   Cd1       2.30390  1_655   S
    O361   Cd3       2.30408      .   S
    O360   Cd2       2.30410      .   S
    O355   Cd3       2.35153      .   S
    O354   Cd2       2.35152  1_545   S
    O353   Cd1       2.35153      .   S
    O352   Cd0       2.35152  1_545   S
    O388   Cd1       2.41183      .   S
    O389   Cd0       2.41181      .   S
    O390   Cd3       2.41185      .   S
    O391   Cd2       2.41182      .   S
    Cd1    O351      2.41148  1_455   S
    Cd1    O314      2.35122  1_455   S
    Cd1    O320      2.30393      .   S
    Cd0    O350      2.41148  1_465   S
    Cd0    O315      2.35124  1_455   S
    Cd0    O321      2.30316  1_565   S
    Cd2    O348      2.41154  1_565   S
    Cd2    O313      2.35119      .   S
    Cd2    O323      2.30318  1_565   S
    Cd3    O349      2.41153      .   S
    Cd3    O312      2.35131      .   S
    Cd3    O322      2.30393      .   S
    O348   C228      1.24138      .   S
    O349   C229      1.24142      .   S
    O350   C230      1.17417  1_655   S
    O351   C231      1.17417  1_655   S
    O314   As10      1.71153      .   S
    O313   As9       1.71167      .   S
    O312   As8       1.71153      .   S
    O315   As11      1.71152      .   S
    O320   As8       1.71638      .   S
    O321   As9       1.66821  1_545   S
    O322   As10      1.71637      .   S
    O323   As11      1.66822  1_545   S
    H95    C227      1.09950      .   S
    H92    C224      1.09841      .   S
    H93    C225      1.09949      .   S
    H94    C226      1.09950      .   S
    H28    O316      1.02475      .   S
    H29    O317      1.02433      .   S
    H31    O319      1.02475      .   S
    H30    O318      1.02433      .   S
    C230   O344      1.43454      .   S
    C230   C226      1.48312  1_455   S
    C229   O347      1.31431      .   S
    C229   C225      1.52769      .   S
    C228   O346      1.31431      .   S
    C228   C224      1.52717      .   S
    C231   O345      1.43455      .   S
    C231   C227      1.48313  1_455   S
    H71    O347      1.05104      .   S
    H70    O346      1.05103      .   S
    H69    O345      1.05102      .   S
    H68    O344      1.05103      .   S
    O317   As9       1.79225      .   S
    O318   As10      1.79223      .   S
    O316   As8       1.79221      .   S
    O319   As11      1.79221      .   S
    C224   H88       1.10150      .   S
    C224   N302      1.44118      .   S
    C227   H91       1.10081      .   S
    C227   N301      1.44027  1_655   S
    C226   H90       1.10080      .   S
    C226   N300      1.44025  1_655   S
    C225   H89       1.10081      .   S
    C225   N303      1.44041      .   S
    H63    N303      1.02588      .   S
    H61    N301      1.02587      .   S
    H62    N302      1.02567      .   S
    H60    N300      1.02565      .   S
    N300   C212      1.37222      .   S
    N301   C213      1.37220      .   S
    N302   C214      1.37242      .   S
    N303   C215      1.37242      .   S
    C171   C175      1.40158      .   S
    C171   C191      1.33440  1_565   S
    C170   C174      1.40159      .   S
    C170   C190      1.40260      .   S
    C169   C173      1.40160      .   S
    C169   C189      1.33543  1_565   S
    C168   C172      1.40160      .   S
    C168   C188      1.40353      .   S
    H38    C174      1.08905      .   S
    H37    C173      1.08902      .   S
    H36    C172      1.08904      .   S
    H39    C175      1.08903      .   S
    H48    C189      1.14557      .   S
    H49    C188      1.08885      .   S
    H50    C191      1.14487      .   S
    H51    C190      1.08771      .   S
    C212   C216      1.41667      .   S
    C212   C208      1.41476      .   S
    C213   C217      1.41667      .   S
    C213   C209      1.41475      .   S
    C214   C218      1.41656      .   S
    C214   C210      1.41462      .   S
    C215   C219      1.41657      .   S
    C215   C211      1.41461      .   S
    C172   C176      1.39030      .   S
    C173   C177      1.38943      .   S
    C174   C178      1.39030      .   S
    C175   C179      1.38944      .   S
    C191   C186      1.40634      .   S
    C190   C187      1.38707      .   S
    C189   C184      1.40461      .   S
    C188   C185      1.38533      .   S
    H80    C216      1.09002      .   S
    H83    C219      1.09001      .   S
    H82    C218      1.09002      .   S
    H81    C217      1.09003      .   S
    H76    C210      1.08834      .   S
    H79    C209      1.08818  1_655   S
    H77    C211      1.08835      .   S
    H78    C208      1.08820  1_655   S
    C218   C222      1.38534      .   S
    C217   C221      1.38533      .   S
    C216   C220      1.38533      .   S
    C219   C223      1.38534      .   S
    C211   C207      1.39031      .   S
    C210   C206      1.39031      .   S
    C209   C205      1.39030      .   S
    C208   C204      1.38878      .   S
    C179   H41       1.08871  1_655   S
    C179   C183      1.41519      .   S
    C177   H43       1.08886      .   S
    C177   C181      1.41519      .   S
    C178   H40       1.08824  1_655   S
    C178   C182      1.41471      .   S
    C176   H42       1.08791      .   S
    C176   C180      1.41469      .   S
    C184   H44       1.08996      .   S
    C184   C181      1.41658  1_545   S
    C185   H45       1.08996      .   S
    C185   C180      1.41653      .   S
    C186   H46       1.08996      .   S
    C186   C183      1.41657  1_545   S
    C187   H47       1.08998      .   S
    C187   C182      1.41654      .   S
    C220   H84       1.08842      .   S
    C220   C200      1.40348      .   S
    C223   H87       1.08842      .   S
    C223   C203      1.40347      .   S
    C222   H86       1.08842      .   S
    C222   C202      1.40346      .   S
    C221   H85       1.08842      .   S
    C221   C201      1.40347      .   S
    C204   H72       1.08992      .   S
    C204   C200      1.40235      .   S
    C207   H75       1.08910      .   S
    C207   C203      1.40165      .   S
    C206   H74       1.08909      .   S
    C206   C202      1.40166      .   S
    C205   H73       1.08912      .   S
    C205   C201      1.40165      .   S
    C181   N297      1.37242      .   S
    C182   N298      1.37243      .   S
    C180   N296      1.37242      .   S
    C183   N299      1.37242      .   S
    N297   H24       1.02574  1_565   S
    N297   C195      1.44037      .   S
    N299   H26       1.02575  1_565   S
    N299   C193      1.44022  1_655   S
    N298   H27       1.02571      .   S
    N298   C192      1.43640  1_655   S
    N296   H25       1.02569      .   S
    N296   C194      1.43658      .   S
    H52    C192      1.09743      .   S
    H54    C194      1.09743      .   S
    H55    C195      1.10083      .   S
    H53    C193      1.10072      .   S
    C192   C196      1.53022  1_455   S
    C192   H56       1.10489      .   S
    C194   C198      1.53023      .   S
    C194   H58       1.10488      .   S
    C195   C199      1.52768      .   S
    C195   H59       1.09950      .   S
    C193   C197      1.52769  1_455   S
    C193   H57       1.09949      .   S
    O324   H32       1.05096      .   S
    O324   C198      1.31426      .   S
    O327   H35       1.05098      .   S
    O327   C197      1.31403      .   S
    O326   H34       1.05096      .   S
    O326   C196      1.31406      .   S
    O325   H33       1.05098      .   S
    O325   C199      1.31427      .   S
    As14   O338      1.79223      .   S
    As14   O342      1.71645      .   S
    As14   O334      1.71137      .   S
    As13   O337      1.79224      .   S
    As13   O341      1.71645      .   S
    As13   O333      1.71138      .   S
    As12   O336      1.79223      .   S
    As12   O340      1.71644      .   S
    As12   O332      1.71137      .   S
    As15   O339      1.79224      .   S
    As15   O343      1.71645      .   S
    As15   O335      1.71137      .   S
    O339   H67       1.02468      .   S
    O338   H66       1.02445      .   S
    O337   H65       1.02469      .   S
    O336   H64       1.02446      .   S
    C197   O329      1.24148  1_655   S
    C196   O328      1.24141  1_655   S
    C198   O330      1.24141      .   S
    C199   O331      1.24146      .   S
    O341   Cd7       2.30422      .   S
    O343   Cd5       2.30403  1_655   S
    O335   Cd7       2.35179      .   S
    O333   Cd5       2.35178      .   S
    O331   Cd7       2.41161      .   S
    O329   Cd5       2.41162      .   S
