# CIF file generated by openbabel 2.4.90, see http://openbabel.sf.net
data_I
_chemical_name_common ''
_cell_length_a 13.201
_cell_length_b 23.707
_cell_length_c 16.267
_cell_angle_alpha 90.023
_cell_angle_beta 89.995
_cell_angle_gamma 90
_space_group_name_H-M_alt 'P 1'
_space_group_name_Hall 'P 1'
loop_
    _symmetry_equiv_pos_as_xyz
    x,y,z
loop_
    _atom_site_label
    _atom_site_type_symbol
    _atom_site_fract_x
    _atom_site_fract_y
    _atom_site_fract_z
    _atom_site_occupancy
    H0      H    0.90153   0.74457   0.76600   1.000
    H1      H    0.61139   0.69450   0.99870   1.000
    H2      H    0.88594   0.07852   0.82187   1.000
    H3      H    0.86724   0.66246   0.31320   1.000
    H4      H    0.07150   0.10165   0.82269   1.000
    H5      H    0.12465   0.93677   0.92747   1.000
    H6      H    0.19366   0.02819   0.87770   1.000
    H7      H    0.85090   0.53958   0.77814   1.000
    H8      H    0.89358   0.69085   0.63384   1.000
    H9      H    0.86851   0.58587   0.63917   1.000
    H10     H    0.59861   0.75528   0.26589   1.000
    H11     H    0.88855   0.80551   0.49860   1.000
    H12     H    0.61411   0.42144   0.32172   1.000
    H13     H    0.63244   0.83764   0.81305   1.000
    H14     H    0.42854   0.39827   0.32256   1.000
    H15     H    0.37528   0.56315   0.42754   1.000
    H16     H    0.30633   0.47170   0.37776   1.000
    H17     H    0.64928   0.96028   0.27798   1.000
    H18     H    0.60654   0.80893   0.13371   1.000
    H19     H    0.63162   0.91391   0.13903   1.000
    H20     H    0.90157   0.25546   0.73400   1.000
    H21     H    0.61141   0.30552   0.50137   1.000
    H22     H    0.88592   0.92150   0.67816   1.000
    H23     H    0.86728   0.33755   0.18685   1.000
    H24     H    0.07149   0.89838   0.67730   1.000
    H25     H    0.12467   0.06327   0.57258   1.000
    H26     H    0.19365   0.97184   0.62226   1.000
    H27     H    0.85090   0.46044   0.72192   1.000
    H28     H    0.89362   0.30918   0.86622   1.000
    H29     H    0.86851   0.41416   0.86089   1.000
    H30     H    0.59860   0.24472   0.23416   1.000
    H31     H    0.88859   0.19448   0.00143   1.000
    H32     H    0.61409   0.57854   0.17835   1.000
    H33     H    0.63245   0.16237   0.68701   1.000
    H34     H    0.42852   0.60171   0.17748   1.000
    H35     H    0.37530   0.43684   0.07249   1.000
    H36     H    0.30633   0.52829   0.12227   1.000
    H37     H    0.64936   0.03972   0.22207   1.000
    H38     H    0.60656   0.19107   0.36634   1.000
    H39     H    0.63169   0.08609   0.36102   1.000
    H40     H    0.09847   0.25544   0.23403   1.000
    H41     H    0.38861   0.30551   0.00135   1.000
    H42     H    0.11405   0.92149   0.17818   1.000
    H43     H    0.13276   0.33755   0.68685   1.000
    H44     H    0.92849   0.89836   0.17735   1.000
    H45     H    0.87535   0.06324   0.07258   1.000
    H46     H    0.80633   0.97182   0.12227   1.000
    H47     H    0.14910   0.46043   0.22191   1.000
    H48     H    0.10642   0.30916   0.36621   1.000
    H49     H    0.13150   0.41414   0.36088   1.000
    H50     H    0.40138   0.24472   0.73416   1.000
    H51     H    0.11145   0.19450   0.50144   1.000
    H52     H    0.38588   0.57856   0.67834   1.000
    H53     H    0.36755   0.16237   0.18700   1.000
    H54     H    0.57145   0.60173   0.67700   1.000
    H55     H    0.62472   0.43686   0.57251   1.000
    H56     H    0.69366   0.52831   0.62230   1.000
    H57     H    0.35070   0.03972   0.72206   1.000
    H58     H    0.39344   0.19107   0.86633   1.000
    H59     H    0.36836   0.08609   0.86100   1.000
    H60     H    0.09843   0.74455   0.26601   1.000
    H61     H    0.38859   0.69449   0.49869   1.000
    H62     H    0.11408   0.07850   0.32189   1.000
    H63     H    0.13272   0.66246   0.81320   1.000
    H64     H    0.92851   0.10163   0.32271   1.000
    H65     H    0.87533   0.93674   0.42747   1.000
    H66     H    0.80634   0.02816   0.37778   1.000
    H67     H    0.14910   0.53957   0.27813   1.000
    H68     H    0.10638   0.69083   0.13383   1.000
    H69     H    0.13149   0.58585   0.13916   1.000
    H70     H    0.40138   0.75529   0.76589   1.000
    H71     H    0.11140   0.80553   0.99863   1.000
    H72     H    0.38590   0.42146   0.82171   1.000
    H73     H    0.36754   0.83764   0.31303   1.000
    H74     H    0.57147   0.39829   0.82258   1.000
    H75     H    0.62469   0.56317   0.92756   1.000
    H76     H    0.69366   0.47172   0.87778   1.000
    H77     H    0.35063   0.96029   0.77798   1.000
    H78     H    0.39342   0.80893   0.63371   1.000
    H79     H    0.36830   0.91391   0.63900   1.000
    C80     C    0.88980   0.69902   0.76571   1.000
    C81     C    0.72403   0.81200   0.97262   1.000
    C82     C    0.84494   0.59953   0.14302   1.000
    C83     C    0.84734   0.58838   0.05557   1.000
    C84     C    0.57467   0.46938   0.59655   1.000
    C85     C    0.61234   0.52059   0.62470   1.000
    C86     C    0.36139   0.08499   0.72832   1.000
    C87     C    0.38451   0.16933   0.80794   1.000
    C88     C    0.85624   0.59315   0.92531   1.000
    C89     C    0.86699   0.61767   0.84330   1.000
    C90     C    0.63631   0.73789   0.99172   1.000
    C91     C    0.96994   0.95978   0.90130   1.000
    C92     C    0.81447   0.84516   0.95891   1.000
    C93     C    0.92508   0.90686   0.92900   1.000
    C94     C    0.94186   0.04855   0.84488   1.000
    C95     C    0.85462   0.63453   0.26130   1.000
    C96     C    0.04488   0.06102   0.84527   1.000
    C97     C    0.07462   0.96930   0.90349   1.000
    C98     C    0.11233   0.02049   0.87531   1.000
    C99     C    0.86160   0.58484   0.77186   1.000
    C100    C    0.88468   0.66914   0.69220   1.000
    C101    C    0.87085   0.61075   0.69556   1.000
    C102    C    0.61033   0.80084   0.26558   1.000
    C103    C    0.77592   0.68798   0.47268   1.000
    C104    C    0.65504   0.90051   0.64290   1.000
    C105    C    0.65272   0.91161   0.55546   1.000
    C106    C    0.64396   0.90678   0.42518   1.000
    C107    C    0.63315   0.88222   0.34324   1.000
    C108    C    0.86363   0.76211   0.49168   1.000
    C109    C    0.53003   0.54017   0.40130   1.000
    C110    C    0.68548   0.65481   0.45895   1.000
    C111    C    0.57487   0.59309   0.42907   1.000
    C112    C    0.55817   0.45140   0.34470   1.000
    C113    C    0.64516   0.86555   0.76117   1.000
    C114    C    0.45513   0.43891   0.34510   1.000
    C115    C    0.42532   0.53063   0.40351   1.000
    N116    N    0.67008   0.96403   0.52528   1.000
    N117    N    0.63598   0.87449   0.49447   1.000
    N118    N    0.61844   0.82555   0.33980   1.000
    N119    N    0.92823   0.71843   0.48425   1.000
    N120    N    0.87187   0.67007   0.47158   1.000
    C121    C    0.38765   0.47942   0.37528   1.000
    C122    C    0.63859   0.91502   0.27170   1.000
    C123    C    0.61547   0.83068   0.19210   1.000
    C124    C    0.62931   0.88907   0.19543   1.000
    C125    C    0.88983   0.30101   0.73436   1.000
    C126    C    0.72405   0.18803   0.52743   1.000
    C127    C    0.84497   0.40048   0.35703   1.000
    C128    C    0.84736   0.41162   0.44448   1.000
    C129    C    0.85626   0.40686   0.57475   1.000
    C130    C    0.86701   0.38234   0.65669   1.000
    C131    C    0.63633   0.26214   0.50834   1.000
    C132    C    0.96996   0.04025   0.59874   1.000
    C133    C    0.81449   0.15486   0.54115   1.000
    C134    C    0.92509   0.09316   0.57105   1.000
    C135    C    0.94185   0.95147   0.65515   1.000
    C136    C    0.85465   0.36548   0.23870   1.000
    C137    C    0.04486   0.93900   0.65476   1.000
    C138    C    0.07464   0.03073   0.59655   1.000
    C139    C    0.11232   0.97954   0.62473   1.000
    C140    C    0.86161   0.41518   0.72820   1.000
    C141    C    0.88470   0.33089   0.80783   1.000
    C142    C    0.87086   0.38928   0.80450   1.000
    C143    C    0.61034   0.19916   0.23447   1.000
    C144    C    0.77596   0.31201   0.02738   1.000
    C145    C    0.65505   0.09950   0.85714   1.000
    C146    C    0.65274   0.08840   0.94400   1.000
    C147    C    0.64399   0.09322   0.07487   1.000
    C148    C    0.63319   0.11778   0.15681   1.000
    C149    C    0.86367   0.23788   0.00837   1.000
    C150    C    0.53004   0.45982   0.09875   1.000
    C151    C    0.68551   0.34518   0.04111   1.000
    C152    C    0.57490   0.40690   0.07099   1.000
    C153    C    0.55817   0.54859   0.15528   1.000
    C154    C    0.64517   0.13446   0.73889   1.000
    C155    C    0.45513   0.56108   0.15487   1.000
    C156    C    0.42534   0.46936   0.09653   1.000
    C157    C    0.38766   0.52057   0.12470   1.000
    C158    C    0.63865   0.08499   0.22832   1.000
    C159    C    0.61550   0.16933   0.30795   1.000
    C160    C    0.62936   0.11094   0.30462   1.000
    C161    C    0.11020   0.30100   0.23434   1.000
    C162    C    0.27596   0.18801   0.02742   1.000
    C163    C    0.15505   0.40048   0.85703   1.000
    C164    C    0.15266   0.41162   0.94448   1.000
    C165    C    0.14375   0.40686   0.07474   1.000
    C166    C    0.13300   0.38233   0.15668   1.000
    C167    C    0.36368   0.26212   0.00833   1.000
    C168    C    0.03005   0.04023   0.09875   1.000
    C169    C    0.18552   0.15485   0.04115   1.000
    C170    C    0.07492   0.09314   0.07105   1.000
    C171    C    0.05813   0.95146   0.15510   1.000
    C172    C    0.14538   0.36548   0.73875   1.000
    C173    C    0.95512   0.93898   0.15478   1.000
    C174    C    0.92538   0.03071   0.09656   1.000
    C175    C    0.88767   0.97951   0.12474   1.000
    C176    C    0.13840   0.41517   0.22819   1.000
    C177    C    0.11532   0.33087   0.30782   1.000
    C178    C    0.12916   0.38926   0.30449   1.000
    C179    C    0.38966   0.19917   0.73447   1.000
    C180    C    0.22408   0.31203   0.52730   1.000
    C181    C    0.34495   0.09950   0.35713   1.000
    C182    C    0.34728   0.08840   0.44458   1.000
    C183    C    0.35604   0.09323   0.57487   1.000
    C184    C    0.36684   0.11778   0.65681   1.000
    C185    C    0.13636   0.23789   0.50837   1.000
    C186    C    0.46997   0.45984   0.59875   1.000
    C187    C    0.31452   0.34520   0.54110   1.000
    C188    C    0.42512   0.40692   0.57099   1.000
    C189    C    0.44182   0.54860   0.65528   1.000
    C190    C    0.35484   0.13446   0.23888   1.000
    C191    C    0.54486   0.56110   0.65488   1.000
    C192    C    0.37067   0.11094   0.80462   1.000
    C193    C    0.11016   0.69900   0.26570   1.000
    C194    C    0.27594   0.81198   0.47262   1.000
    C195    C    0.15503   0.59953   0.64302   1.000
    C196    C    0.15264   0.58839   0.55557   1.000
    C197    C    0.14373   0.59314   0.42530   1.000
    C198    C    0.13299   0.61766   0.34336   1.000
    C199    C    0.36366   0.73787   0.49171   1.000
    C200    C    0.03004   0.95976   0.40131   1.000
    C201    C    0.18551   0.84514   0.45890   1.000
    C202    C    0.07490   0.90684   0.42900   1.000
    C203    C    0.05815   0.04853   0.34490   1.000
    C204    C    0.14535   0.63453   0.76130   1.000
    C205    C    0.95513   0.06100   0.34520   1.000
    C206    C    0.92536   0.96928   0.40350   1.000
    C207    C    0.88768   0.02047   0.37532   1.000
    C208    C    0.13839   0.58483   0.27185   1.000
    C209    C    0.11529   0.66912   0.19222   1.000
    C210    C    0.12914   0.61073   0.19555   1.000
    C211    C    0.38965   0.80084   0.76558   1.000
    C212    C    0.22404   0.68800   0.97267   1.000
    C213    C    0.34494   0.90050   0.14290   1.000
    C214    C    0.34726   0.91161   0.05545   1.000
    C215    C    0.35601   0.90678   0.92518   1.000
    C216    C    0.36680   0.88223   0.84324   1.000
    C217    C    0.13632   0.76213   0.99160   1.000
    C218    C    0.46995   0.54019   0.90131   1.000
    C219    C    0.31448   0.65483   0.95893   1.000
    C220    C    0.42510   0.59311   0.92906   1.000
    C221    C    0.44183   0.45142   0.84478   1.000
    C222    C    0.35482   0.86555   0.26110   1.000
    C223    C    0.54487   0.43893   0.84519   1.000
    C224    C    0.57465   0.53065   0.90352   1.000
    C225    C    0.61234   0.47944   0.87530   1.000
    C226    C    0.36134   0.91502   0.77172   1.000
    C227    C    0.38449   0.83068   0.69210   1.000
    C228    C    0.37062   0.88907   0.69542   1.000
    N229    N    0.73327   0.75499   0.98537   1.000
    N230    N    0.83519   0.53878   0.94148   1.000
    N231    N    0.83006   0.53595   0.02537   1.000
    N232    N    0.86413   0.62548   0.99460   1.000
    N233    N    0.88171   0.67434   0.83995   1.000
    N234    N    0.57171   0.78155   0.98410   1.000
    N235    N    0.62808   0.82990   0.97146   1.000
    N236    N    0.90637   0.82019   0.96433   1.000
    N237    N    0.82491   0.58046   0.27168   1.000
    N238    N    0.82265   0.89991   0.93702   1.000
    N239    N    0.81806   0.55764   0.19454   1.000
    N240    N    0.90455   0.99914   0.87215   1.000
    N241    N    0.97781   0.85980   0.94530   1.000
    N242    N    0.86795   0.64857   0.18172   1.000
    N243    N    0.76668   0.74501   0.48529   1.000
    N244    N    0.66497   0.96116   0.44137   1.000
    N245    N    0.59357   0.67978   0.46436   1.000
    N246    N    0.67495   0.91961   0.77100   1.000
    N247    N    0.67729   0.60004   0.43710   1.000
    N248    N    0.68192   0.94240   0.69447   1.000
    N249    N    0.59544   0.50082   0.37209   1.000
    N250    N    0.52214   0.64017   0.44535   1.000
    N251    N    0.63189   0.85149   0.68157   1.000
    N252    N    0.73329   0.24504   0.51400   1.000
    N253    N    0.83520   0.46123   0.55858   1.000
    N254    N    0.83007   0.46406   0.47468   1.000
    N255    N    0.86415   0.37453   0.50546   1.000
    N256    N    0.88174   0.32568   0.66012   1.000
    N257    N    0.57173   0.21847   0.51589   1.000
    N258    N    0.62811   0.17012   0.52850   1.000
    N259    N    0.90639   0.17984   0.53570   1.000
    N260    N    0.82493   0.41955   0.22837   1.000
    N261    N    0.82267   0.10011   0.56303   1.000
    N262    N    0.81808   0.44236   0.30551   1.000
    N263    N    0.90456   0.00088   0.62789   1.000
    N264    N    0.97783   0.14023   0.55473   1.000
    N265    N    0.86799   0.35144   0.31833   1.000
    N266    N    0.76672   0.25498   0.01475   1.000
    N267    N    0.66500   0.03885   0.05867   1.000
    N268    N    0.67010   0.03598   0.97478   1.000
    N269    N    0.63601   0.12551   0.00558   1.000
    N270    N    0.61846   0.17445   0.16020   1.000
    N271    N    0.92827   0.28156   0.01581   1.000
    N272    N    0.87191   0.32992   0.02848   1.000
    N273    N    0.59361   0.32021   0.03569   1.000
    N274    N    0.67496   0.08040   0.72846   1.000
    N275    N    0.67732   0.39995   0.06296   1.000
    N276    N    0.68193   0.05761   0.80558   1.000
    N277    N    0.59545   0.49917   0.12790   1.000
    N278    N    0.52217   0.35982   0.05470   1.000
    N279    N    0.63189   0.14852   0.81849   1.000
    N280    N    0.26672   0.24502   0.01468   1.000
    N281    N    0.16480   0.46123   0.05857   1.000
    N282    N    0.16993   0.46406   0.97468   1.000
    N283    N    0.13587   0.37453   0.00545   1.000
    N284    N    0.11829   0.32567   0.16010   1.000
    N285    N    0.42828   0.21845   0.01580   1.000
    N286    N    0.37191   0.17011   0.02850   1.000
    N287    N    0.09362   0.17982   0.03573   1.000
    N288    N    0.17508   0.41955   0.72837   1.000
    N289    N    0.17734   0.10009   0.06303   1.000
    N290    N    0.18192   0.44237   0.80551   1.000
    N291    N    0.09544   0.00086   0.12790   1.000
    N292    N    0.02218   0.14021   0.05474   1.000
    N293    N    0.13204   0.35144   0.81833   1.000
    N294    N    0.23332   0.25500   0.51475   1.000
    N295    N    0.33502   0.03885   0.55867   1.000
    N296    N    0.32992   0.03598   0.47477   1.000
    N297    N    0.36401   0.12552   0.50558   1.000
    N298    N    0.38154   0.17445   0.66023   1.000
    N299    N    0.07176   0.28157   0.51581   1.000
    N300    N    0.12812   0.32993   0.52847   1.000
    N301    N    0.40642   0.32022   0.53569   1.000
    N302    N    0.32504   0.08040   0.22845   1.000
    N303    N    0.32270   0.39997   0.56295   1.000
    N304    N    0.31808   0.05761   0.30550   1.000
    N305    N    0.40455   0.49918   0.62797   1.000
    N306    N    0.47785   0.35983   0.55470   1.000
    N307    N    0.36811   0.14852   0.31840   1.000
    N308    N    0.26670   0.75497   0.48536   1.000
    N309    N    0.16480   0.53878   0.44147   1.000
    N310    N    0.16993   0.53595   0.52537   1.000
    N311    N    0.13584   0.62547   0.49459   1.000
    N312    N    0.11826   0.67433   0.33994   1.000
    N313    N    0.42826   0.78154   0.48416   1.000
    N314    N    0.37189   0.82989   0.47146   1.000
    N315    N    0.09360   0.82017   0.46432   1.000
    N316    N    0.17506   0.58046   0.77168   1.000
    N317    N    0.17733   0.89990   0.43702   1.000
    N318    N    0.18192   0.55764   0.69454   1.000
    N319    N    0.09543   0.99913   0.37216   1.000
    N320    N    0.02217   0.85977   0.44532   1.000
    N321    N    0.13201   0.64857   0.68172   1.000
    N322    N    0.23328   0.74502   0.98530   1.000
    N323    N    0.33500   0.96116   0.94138   1.000
    N324    N    0.32990   0.96403   0.02527   1.000
    N325    N    0.36399   0.87450   0.99447   1.000
    N326    N    0.38153   0.82556   0.83981   1.000
    N327    N    0.07172   0.71845   0.98424   1.000
    N328    N    0.12809   0.67009   0.97157   1.000
    N329    N    0.40638   0.67980   0.96436   1.000
    N330    N    0.32503   0.91960   0.27159   1.000
    N331    N    0.32267   0.60006   0.93700   1.000
    N332    N    0.31806   0.94240   0.19440   1.000
    N333    N    0.40455   0.50084   0.87208   1.000
    N334    N    0.47782   0.64019   0.94530   1.000
    N335    N    0.36809   0.85149   0.18155   1.000
loop_
    _geom_bond_atom_site_label_1
    _geom_bond_atom_site_label_2
    _geom_bond_distance
    _geom_bond_site_symmetry_2
    _ccdc_geom_bond_type
    H41    C167      1.08596      .   S
    H31    C149      1.08597      .   S
    N283   C165      1.36675      .   S
    N283   C164      1.34420  1_554   S
    N269   C147      1.36681      .   S
    N269   C146      1.35119  1_554   S
    C167   N280      1.34663      .   S
    C167   N285      1.34673      .   S
    C149   N266      1.34658      .   S
    C149   N271      1.34686      .   S
    N280   C162      1.37280      .   S
    N266   C144      1.37279      .   S
    N285   N286      1.38212      .   S
    N271   N272      1.38215      .   S
    N324   C214      1.35583      .   S
    N324   N323      1.36796  1_554   S
    N231   C83       1.35584      .   S
    N231   N230      1.36800  1_554   S
    C144   N272      1.33601      .   S
    C144   C151      1.44695      .   S
    C162   N286      1.33599      .   S
    C162   C169      1.44688      .   S
    N273   C151      1.35283      .   S
    N273   N278      1.36623      .   S
    N287   C169      1.35284      .   S
    N287   N292      1.36624      .   S
    C151   N275      1.35042      .   S
    C169   N289      1.35043      .   S
    N278   C152      1.34181      .   S
    N292   C170      1.34179      .   S
    C214   C213      1.44714      .   S
    C214   N325      1.34397  1_554   S
    C83    C82       1.44711      .   S
    C83    N232      1.34419  1_554   S
    N281   C165      1.34461      .   S
    N281   N282      1.36800  1_554   S
    N267   C147      1.34459      .   S
    N267   N268      1.36795  1_554   S
    N275   C152      1.36834      .   S
    N289   C170      1.36834      .   S
    C152   C150      1.45873      .   S
    C170   C168      1.45877      .   S
    H35    C156      1.08794      .   S
    H45    C174      1.08795      .   S
    C165   C166      1.46129      .   S
    C147   C148      1.46125      .   S
    C156   C150      1.40106      .   S
    C156   C157      1.38952      .   S
    C174   C168      1.40063  1_655   S
    C174   C175      1.38972  1_545   S
    C168   N291      1.35690      .   S
    C150   N277      1.35649      .   S
    H46    C175      1.08982      .   S
    H36    C157      1.08978      .   S
    C157   C155      1.39861      .   S
    C175   C173      1.39833      .   S
    N291   C171      1.34565  1_545   S
    N277   C153      1.34641      .   S
    H18    C123      1.08695      .   S
    H68    C209      1.08691      .   S
    H19    C124      1.09090      .   S
    H69    C210      1.09083      .   S
    C213   N335      1.35631      .   S
    C213   N332      1.34663      .   S
    C82    N242      1.35634      .   S
    C82    N239      1.34724      .   S
    C173   C171      1.39166  1_655   S
    C173   H44       1.08911      .   S
    C155   C153      1.39214      .   S
    C155   H34       1.08914      .   S
    C171   H42       1.09128      .   S
    C153   H32       1.09090      .   S
    C166   N284      1.35855      .   S
    C166   C176      1.40118      .   S
    C148   N270      1.35855      .   S
    C148   C158      1.40120      .   S
    N284   C161      1.34630      .   S
    N270   C143      1.34677      .   S
    N335   C222      1.34755      .   S
    N242   C95       1.34830      .   S
    H23    C136      1.08492      .   S
    H53    C190      1.08557      .   S
    C123   C124      1.39729      .   S
    C123   C102      1.39081      .   S
    C209   C210      1.39731      .   S
    C209   C193      1.39083      .   S
    N332   N330      1.37030      .   S
    N239   N237      1.36925      .   S
    C124   C122      1.39002      .   S
    C210   C208      1.39036      .   S
    H47    C176      1.08717      .   S
    H37    C158      1.08716      .   S
    C176   C178      1.39035      .   S
    C158   C160      1.39044      .   S
    N260   C136      1.35108      .   S
    N260   N262      1.36925      .   S
    N302   C190      1.35117      .   S
    N302   N304      1.36819      .   S
    H40    C161      1.09100      .   S
    H30    C143      1.09100      .   S
    C161   C177      1.39082      .   S
    C143   C159      1.39080      .   S
    C136   N265      1.34909      .   S
    C190   N307      1.34712      .   S
    C222   N330      1.35129      .   S
    C222   H73       1.08624      .   S
    C95    N237      1.35117      .   S
    C95    H3        1.08557      .   S
    C102   H10       1.09101      .   S
    C102   N118      1.34605      .   S
    C193   H60       1.09099      .   S
    C193   N312      1.34629      .   S
    C122   H17       1.08722      .   S
    C122   C107      1.40161      .   S
    C208   H67       1.08717      .   S
    C208   C198      1.40120      .   S
    C178   C177      1.39731      .   S
    C178   H49       1.09081      .   S
    C160   C159      1.39730      .   S
    C160   H39       1.09090      .   S
    N304   C181      1.34800      .   S
    N262   C127      1.34725      .   S
    C177   H48       1.08690      .   S
    C159   H38       1.08693      .   S
    N265   C127      1.35633      .   S
    N307   C181      1.35687      .   S
    H12    C112      1.09045      .   S
    H62    C203      1.09091      .   S
    H14    C114      1.08876      .   S
    H64    C205      1.08866      .   S
    N118   C107      1.35857      .   S
    N312   C198      1.35856      .   S
    C107   C106      1.46128      .   S
    C198   C197      1.46130      .   S
    C112   C114      1.39214      .   S
    C112   N249      1.34644      .   S
    C203   C205      1.39167  1_455   S
    C203   N319      1.34584  1_545   S
    C114   C121      1.39873      .   S
    C205   C207      1.39881      .   S
    C127   C128      1.44712      .   S
    C181   C182      1.44715      .   S
    N249   C109      1.35689      .   S
    N319   C200      1.35690      .   S
    C121   H16       1.08982      .   S
    C121   C115      1.38979      .   S
    C207   H66       1.08983      .   S
    C207   C206      1.38958  1_545   S
    C109   C115      1.40106      .   S
    C109   C111      1.45875      .   S
    C200   C206      1.40063  1_455   S
    C200   C202      1.45873      .   S
    C206   H65       1.08789      .   S
    C115   H15       1.08794      .   S
    C106   N244      1.34459      .   S
    C106   N117      1.36679      .   S
    C197   N309      1.34457      .   S
    C197   N311      1.36676      .   S
    C202   N317      1.36836      .   S
    C202   N320      1.34184      .   S
    C111   N247      1.36834      .   S
    C111   N250      1.34180      .   S
    N317   C201      1.35045      .   S
    N247   C110      1.35040      .   S
    N244   N116      1.36830      .   S
    N309   N310      1.36816      .   S
    C128   N254      1.35585      .   S
    C128   N255      1.34425      .   S
    C182   N296      1.35586      .   S
    C182   N297      1.34432      .   S
    N320   N315      1.36622      .   S
    N250   N245      1.36622      .   S
    C201   N315      1.35283      .   S
    C201   C194      1.44687      .   S
    C110   N245      1.35283      .   S
    C110   C103      1.44696      .   S
    N314   C194      1.33601      .   S
    N314   N313      1.38213      .   S
    N120   C103      1.33601      .   S
    N120   N119      1.38216      .   S
    C194   N308      1.37280      .   S
    C103   N243      1.37276      .   S
    N254   N253      1.36816      .   S
    N296   N295      1.36814      .   S
    N313   C199      1.34685      .   S
    N119   C108      1.34686      .   S
    N243   C108      1.34660      .   S
    N308   C199      1.34662      .   S
    C108   H11       1.08593      .   S
    C199   H61       1.08597      .   S
    N117   C105      1.34419      .   S
    N311   C196      1.34424      .   S
    H21    C131      1.08593      .   S
    H51    C185      1.08594      .   S
    N255   C129      1.36677      .   S
    N297   C183      1.36679      .   S
    C131   N252      1.34581      .   S
    C131   N257      1.34688      .   S
    C185   N294      1.34661      .   S
    C185   N299      1.34686      .   S
    N252   C126      1.37454      .   S
    N294   C180      1.37259      .   S
    N299   N300      1.38214      .   S
    N257   N258      1.38192      .   S
    N116   C105      1.35582      .   S
    N310   C196      1.35586      .   S
    C180   N300      1.33604      .   S
    C180   C187      1.44713      .   S
    C126   N258      1.33599      .   S
    C126   C133      1.44690      .   S
    N301   C187      1.35284      .   S
    N301   N306      1.36621      .   S
    N259   C133      1.35287      .   S
    N259   N264      1.36635      .   S
    C187   N303      1.35040      .   S
    C133   N261      1.35043      .   S
    N306   C188      1.34182      .   S
    N264   C134      1.34183      .   S
    C105   C104      1.44698      .   S
    C196   C195      1.44712      .   S
    N253   C129      1.34459      .   S
    N295   C183      1.34462      .   S
    N303   C188      1.36834      .   S
    N261   C134      1.36834      .   S
    C188   C186      1.45871      .   S
    C134   C132      1.45877      .   S
    H55    C84       1.08798      .   S
    H25    C138      1.08790      .   S
    C129   C130      1.46129      .   S
    C183   C184      1.46127      .   S
    C84    C186      1.40105      .   S
    C84    C85       1.38936      .   S
    C138   C132      1.40063  1_455   S
    C138   C139      1.38961  1_545   S
    C132   N263      1.35692      .   S
    C186   N305      1.35694      .   S
    H26    C139      1.08982      .   S
    H56    C85       1.08976      .   S
    C85    C191      1.39872      .   S
    C139   C137      1.39828      .   S
    N263   C135      1.34584  1_545   S
    N305   C189      1.34601      .   S
    H78    C227      1.08693      .   S
    H8     C100      1.08649      .   S
    H79    C228      1.09116      .   S
    H9     C101      1.09081      .   S
    C104   N251      1.35644      .   S
    C104   N248      1.34740      .   S
    C195   N321      1.35635      .   S
    C195   N318      1.34724      .   S
    C137   C135      1.39167  1_455   S
    C137   H24       1.08896      .   S
    C191   C189      1.39213      .   S
    C191   H54       1.08646      .   S
    C135   H22       1.09090      .   S
    C189   H52       1.09089      .   S
    C130   N256      1.35856      .   S
    C130   C140      1.40122      .   S
    C184   N298      1.35858      .   S
    C184   C86       1.40121      .   S
    N256   C125      1.34629      .   S
    N298   C179      1.34633      .   S
    N251   C113      1.34836      .   S
    N321   C204      1.34831      .   S
    H43    C172      1.08556      .   S
    H33    C154      1.08560      .   S
    C227   C228      1.39730      .   S
    C227   C211      1.39079      .   S
    C100   C101      1.39733      .   S
    C100   C80       1.39123      .   S
    N248   N246      1.36045      .   S
    N318   N316      1.36926      .   S
    C228   C226      1.39045      .   S
    C101   C99       1.39037      .   S
    H27    C140      1.08717      .   S
    H57    C86       1.08717      .   S
    C140   C142      1.39035      .   S
    C86    C192      1.39045      .   S
    N288   C172      1.35118      .   S
    N288   N290      1.36925      .   S
    N274   C154      1.35116      .   S
    N274   N276      1.36926      .   S
    H20    C125      1.09099      .   S
    H50    C179      1.09099      .   S
    C125   C141      1.39070      .   S
    C179   C87       1.39067      .   S
    C172   N293      1.34829      .   S
    C154   N279      1.34833      .   S
    C113   N246      1.35000      .   S
    C113   H13       1.08557      .   S
    C204   N316      1.35118      .   S
    C204   H63       1.08555      .   S
    C211   H70       1.09100      .   S
    C211   N326      1.34620      .   S
    C80    H0        1.09100      .   S
    C80    N233      1.34631      .   S
    C226   H77       1.08720      .   S
    C226   C216      1.40133      .   S
    C99    H7        1.08717      .   S
    C99    C89       1.40023      .   S
    C142   C141      1.39731      .   S
    C142   H29       1.09084      .   S
    C192   C87       1.39728      .   S
    C192   H59       1.09064      .   S
    N290   C163      1.34722      .   S
    N276   C145      1.34723      .   S
    C141   H28       1.08690      .   S
    C87    H58       1.08693      .   S
    N293   C163      1.35635      .   S
    N279   C145      1.35632      .   S
    H72    C221      1.09092      .   S
    H2     C94       1.09089      .   S
    H74    C223      1.08915      .   S
    H4     C96       1.08914      .   S
    N326   C216      1.35857      .   S
    N233   C89       1.35851      .   S
    C216   C215      1.46125      .   S
    C89    C88       1.46233      .   S
    C221   C223      1.39214      .   S
    C221   N333      1.34600      .   S
    C94    C96       1.39167  1_655   S
    C94    N240      1.34601  1_545   S
    C223   C225      1.39829      .   S
    C96    C98       1.39832      .   S
    C163   C164      1.44711      .   S
    C145   C146      1.43770      .   S
    N333   C218      1.35697      .   S
    N240   C91       1.35688      .   S
    C225   H76       1.08982      .   S
    C225   C224      1.38978      .   S
    C98    H6        1.08978      .   S
    C98    C97       1.38970  1_545   S
    C91    C97       1.40064  1_655   S
    C91    C93       1.45877      .   S
    C218   C224      1.40106      .   S
    C218   C220      1.45866      .   S
    C97    H5        1.08792      .   S
    C224   H75       1.08797      .   S
    C215   N323      1.34461      .   S
    C215   N325      1.36681      .   S
    C88    N230      1.34458      .   S
    C88    N232      1.36675      .   S
    C93    N238      1.36836      .   S
    C93    N241      1.34174      .   S
    C220   N331      1.36821      .   S
    C220   N334      1.34169      .   S
    N331   C219      1.35079      .   S
    N238   C92       1.35042      .   S
    C146   N268      1.35938      .   S
    C164   N282      1.35583      .   S
    N334   N329      1.36639      .   S
    N241   N236      1.36633      .   S
    C92    N236      1.35284      .   S
    C92    C81       1.44686      .   S
    C219   N329      1.35283      .   S
    C219   C212      1.44697      .   S
    N235   C81       1.33601      .   S
    N235   N234      1.38197      .   S
    N328   C212      1.33601      .   S
    N328   N327      1.38213      .   S
    C81    N229      1.37282      .   S
    C212   N322      1.37276      .   S
    N234   C90       1.34695      .   S
    N327   C217      1.34675      .   S
    N322   C217      1.34648      .   S
    N229   C90       1.34661      .   S
    C217   H71       1.08612      .   S
    C90    H1        1.08596      .   S
