# CIF file generated by openbabel 2.4.90, see http://openbabel.sf.net
data_I
_chemical_name_common ''
_cell_length_a 13.201
_cell_length_b 23.707
_cell_length_c 16.267
_cell_angle_alpha 90.023
_cell_angle_beta 89.995
_cell_angle_gamma 90
_space_group_name_H-M_alt 'P 1'
_space_group_name_Hall 'P 1'
loop_
    _symmetry_equiv_pos_as_xyz
    x,y,z
loop_
    _atom_site_label
    _atom_site_type_symbol
    _atom_site_fract_x
    _atom_site_fract_y
    _atom_site_fract_z
    _atom_site_occupancy
    Cd0     Cd   0.77246   0.47233   0.12083   1.000
    Cd1     Cd   0.60044   0.78065   0.47257   1.000
    Cd2     Cd   0.72757   0.02768   0.62080   1.000
    Cd3     Cd   0.89959   0.28068   0.52730   1.000
    Cd4     Cd   0.77245   0.52767   0.37920   1.000
    Cd5     Cd   0.60046   0.21935   0.02748   1.000
    Cd6     Cd   0.72756   0.97233   0.87923   1.000
    Cd7     Cd   0.10044   0.28067   0.02730   1.000
    Cd8     Cd   0.22753   0.52768   0.87922   1.000
    Cd9     Cd   0.39956   0.21936   0.52740   1.000
    Cd10    Cd   0.27242   0.97232   0.37923   1.000
    Cd11    Cd   0.10041   0.71932   0.47267   1.000
    Cd12    Cd   0.22754   0.47234   0.62083   1.000
    Cd13    Cd   0.39953   0.78066   0.97257   1.000
    Cd14    Cd   0.27244   0.02768   0.12082   1.000
    Cd15    Cd   0.89955   0.71934   0.97268   1.000
