# CIF file generated by openbabel 2.4.90, see http://openbabel.sf.net
data_I
_chemical_name_common ''
_cell_length_a 13.201
_cell_length_b 23.707
_cell_length_c 16.267
_cell_angle_alpha 90.023
_cell_angle_beta 89.995
_cell_angle_gamma 90
_space_group_name_H-M_alt 'P 1'
_space_group_name_Hall 'P 1'
loop_
    _symmetry_equiv_pos_as_xyz
    x,y,z
loop_
    _atom_site_label
    _atom_site_type_symbol
    _atom_site_fract_x
    _atom_site_fract_y
    _atom_site_fract_z
    _atom_site_occupancy
    N0      N    0.88929   0.91172   0.92051   1.000
    N1      N    0.86099   0.61817   0.93969   1.000
    N2      N    0.63907   0.88176   0.43954   1.000
    N3      N    0.61068   0.58823   0.42050   1.000
    N4      N    0.86101   0.38185   0.56036   1.000
    N5      N    0.88930   0.08830   0.57949   1.000
    N6      N    0.63909   0.11824   0.06045   1.000
    N7      N    0.61070   0.41175   0.07954   1.000
    N8      N    0.13900   0.38184   0.06035   1.000
    N9      N    0.11070   0.08829   0.07952   1.000
    N10     N    0.36092   0.11824   0.56047   1.000
    N11     N    0.38931   0.41177   0.57952   1.000
    N12     N    0.13898   0.61816   0.43969   1.000
    N13     N    0.11070   0.91170   0.42051   1.000
    N14     N    0.36090   0.88177   0.93956   1.000
    N15     N    0.38930   0.58825   0.92050   1.000
    Zr16    Zr   0.89955   0.71934   0.97268   1.000
    O17     O    0.04351   0.68646   0.96108   1.000
    Zr18    Zr   0.77246   0.47233   0.12083   1.000
    O19     O    0.80116   0.44311   0.24415   1.000
    Zr20    Zr   0.60044   0.78065   0.47257   1.000
    O21     O    0.45648   0.81352   0.46100   1.000
    Zr22    Zr   0.72757   0.02768   0.62080   1.000
    O23     O    0.69888   0.05691   0.74417   1.000
    Zr24    Zr   0.89959   0.28068   0.52730   1.000
    O25     O    0.04354   0.31357   0.53892   1.000
    Zr26    Zr   0.77245   0.52767   0.37920   1.000
    O27     O    0.80114   0.55689   0.25588   1.000
    Zr28    Zr   0.60046   0.21935   0.02748   1.000
    O29     O    0.45650   0.18647   0.03903   1.000
    Zr30    Zr   0.72756   0.97233   0.87923   1.000
    O31     O    0.69886   0.94310   0.75578   1.000
    Zr32    Zr   0.10044   0.28067   0.02730   1.000
    O33     O    0.95648   0.31355   0.03892   1.000
    Zr34    Zr   0.22753   0.52768   0.87922   1.000
    O35     O    0.19884   0.55690   0.75590   1.000
    Zr36    Zr   0.39956   0.21936   0.52740   1.000
    O37     O    0.54351   0.18648   0.53898   1.000
    Zr38    Zr   0.27242   0.97232   0.37923   1.000
    O39     O    0.30112   0.94310   0.25586   1.000
    Zr40    Zr   0.10041   0.71932   0.47267   1.000
    O41     O    0.95645   0.68644   0.46107   1.000
    Zr42    Zr   0.22754   0.47234   0.62083   1.000
    O43     O    0.19885   0.44312   0.74415   1.000
    Zr44    Zr   0.39953   0.78066   0.97257   1.000
    O45     O    0.54350   0.81354   0.96100   1.000
    Zr46    Zr   0.27244   0.02768   0.12082   1.000
    O47     O    0.30113   0.05691   0.24419   1.000
    O48     O    0.11295   0.77595   0.45990   1.000
    O49     O    0.21498   0.95432   0.39272   1.000
    O50     O    0.11297   0.22404   0.04009   1.000
    O51     O    0.11341   0.31464   0.04250   1.000
    O52     O    0.11338   0.68536   0.45750   1.000
    O53     O    0.61344   0.81460   0.45738   1.000
    O54     O    0.61296   0.72401   0.45983   1.000
    O55     O    0.71501   0.45434   0.10733   1.000
    O56     O    0.80104   0.51810   0.07419   1.000
    O57     O    0.88661   0.31465   0.54250   1.000
    O58     O    0.88705   0.22406   0.54004   1.000
    O59     O    0.61298   0.27598   0.04021   1.000
    O60     O    0.69900   0.01812   0.92590   1.000
    O61     O    0.78500   0.95433   0.89272   1.000
    O62     O    0.21500   0.04568   0.10733   1.000
    O63     O    0.30099   0.98189   0.07413   1.000
    O64     O    0.69900   0.98189   0.57412   1.000
    O65     O    0.78501   0.04569   0.60731   1.000
    O66     O    0.38701   0.72403   0.95983   1.000
    O67     O    0.28498   0.54567   0.89270   1.000
    O68     O    0.80105   0.48191   0.42585   1.000
    O69     O    0.38653   0.81461   0.95739   1.000
    O70     O    0.71500   0.54565   0.39270   1.000
    O71     O    0.30099   0.01811   0.42590   1.000
    O72     O    0.38655   0.18541   0.54260   1.000
    O73     O    0.28499   0.45435   0.60733   1.000
    O74     O    0.19895   0.51810   0.57419   1.000
    O75     O    0.61346   0.18540   0.04265   1.000
    O76     O    0.38704   0.27599   0.54016   1.000
    O77     O    0.19895   0.48191   0.92586   1.000
    O78     O    0.88658   0.68537   0.95751   1.000
    O79     O    0.88702   0.77596   0.95991   1.000
loop_
    _geom_bond_atom_site_label_1
    _geom_bond_atom_site_label_2
    _geom_bond_distance
    _geom_bond_site_symmetry_2
    _ccdc_geom_bond_type
    Zr16   O17       2.06264  1_655   S
    N15    O17       5.16630      .   S
    Zr18   O19       2.15617      .   S
    N4     O19       5.40349      .   S
    Zr20   O21       2.06264      .   S
    N13    O21       5.16621      .   S
    Zr22   O23       2.15636      .   S
    N6     O23       5.40371  1_554   S
    Zr24   O25       2.06268  1_655   S
    N11    O25       5.16634      .   S
    Zr26   O27       2.15603      .   S
    N1     O27       5.40327  1_556   S
    Zr28   O29       2.06265      .   S
    N9     O29       5.16630      .   S
    Zr30   O31       2.15767      .   S
    N2     O31       5.40324      .   S
    Zr32   O33       2.06267  1_455   S
    N7     O33       5.16636      .   S
    Zr34   O35       2.15618      .   S
    N12    O35       5.40353      .   S
    Zr36   O37       2.06267      .   S
    N5     O37       5.16624      .   S
    Zr38   O39       2.15640      .   S
    N14    O39       5.40399  1_556   S
    Zr40   O41       2.06266  1_455   S
    N3     O41       5.16631      .   S
    Zr42   O43       2.15612      .   S
    N8     O43       5.40338  1_554   S
    Zr44   O45       2.06269      .   S
    N0     O45       5.16628      .   S
    Zr46   O47       2.15637      .   S
    N10    O47       5.40390      .   S
    N13    O48       3.28185      .   S
    Zr40   O48       1.36852      .   S
    N13    O49       1.76654      .   S
    Zr38   O49       0.89741      .   S
    Zr32   O50       1.36863      .   S
    N9     O50       3.28208      .   S
    Zr32   O51       0.85957      .   S
    N8     O51       1.65410      .   S
    Zr40   O52       0.85940      .   S
    N12    O52       1.65387      .   S
    Zr20   O53       0.85934      .   S
    N2     O53       1.65361      .   S
    Zr20   O54       1.36847      .   S
    N3     O54       3.28179      .   S
    Zr18   O55       0.89736      .   S
    N7     O55       1.76625      .   S
    Zr18   O56       1.37693      .   S
    N1     O56       3.32338  1_556   S
    Zr24   O57       0.85955      .   S
    N4     O57       1.65404      .   S
    Zr24   O58       1.36845      .   S
    N5     O58       3.28204      .   S
    N7     O59       3.28160      .   S
    Zr28   O59       1.36838      .   S
    Zr30   O60       1.37698  1_565   S
    N6     O60       3.32348  1_554   S
    Zr30   O61       0.89739      .   S
    N0     O61       1.76650      .   S
    Zr46   O62       0.89742      .   S
    N9     O62       1.76657      .   S
    Zr46   O63       1.37711  1_545   S
    N14    O63       3.32375  1_556   S
    Zr22   O64       1.37716  1_545   S
    N2     O64       3.32407      .   S
    Zr22   O65       0.89743      .   S
    N5     O65       1.76663      .   S
    N15    O66       3.28165      .   S
    Zr44   O66       1.36840      .   S
    N15    O67       1.76625      .   S
    Zr34   O67       0.89731      .   S
    N4     O68       3.32344      .   S
    Zr26   O68       1.37697      .   S
    N14    O69       1.65347      .   S
    Zr44   O69       0.85928      .   S
    N3     O70       1.76620      .   S
    Zr26   O70       0.89733      .   S
    N10    O71       3.32390      .   S
    Zr38   O71       1.37709  1_565   S
    N10    O72       1.65368      .   S
    Zr36   O72       0.85944      .   S
    Zr42   O73       0.89733      .   S
    N11    O73       1.76626      .   S
    Zr42   O74       1.37691      .   S
    N12    O74       3.32335      .   S
    Zr28   O75       0.85923      .   S
    N6     O75       1.65341      .   S
    N11    O76       3.28184      .   S
    Zr36   O76       1.36851      .   S
    N8     O77       3.32332  1_554   S
    Zr34   O77       1.37691      .   S
    N1     O78       1.65396      .   S
    Zr16   O78       0.85944      .   S
    Zr16   O79       1.36858      .   S
    N0     O79       3.28199      .   S
