# CIF file generated by openbabel 2.4.90, see http://openbabel.sf.net
data_I
_chemical_name_common ''
_cell_length_a 13.201
_cell_length_b 23.707
_cell_length_c 16.267
_cell_angle_alpha 90.023
_cell_angle_beta 89.995
_cell_angle_gamma 90
_space_group_name_H-M_alt 'P 1'
_space_group_name_Hall 'P 1'
loop_
    _symmetry_equiv_pos_as_xyz
    x,y,z
loop_
    _atom_site_label
    _atom_site_type_symbol
    _atom_site_fract_x
    _atom_site_fract_y
    _atom_site_fract_z
    _atom_site_occupancy
    N0      N    0.88929   0.91172   0.92051   1.000
    N1      N    0.86099   0.61817   0.93969   1.000
    N2      N    0.63907   0.88176   0.43954   1.000
    N3      N    0.61068   0.58823   0.42050   1.000
    N4      N    0.86101   0.38185   0.56036   1.000
    N5      N    0.88930   0.08830   0.57949   1.000
    N6      N    0.63909   0.11824   0.06045   1.000
    N7      N    0.61070   0.41175   0.07954   1.000
    N8      N    0.13900   0.38184   0.06035   1.000
    N9      N    0.11070   0.08829   0.07952   1.000
    N10     N    0.36092   0.11824   0.56047   1.000
    N11     N    0.38931   0.41177   0.57952   1.000
    N12     N    0.13898   0.61816   0.43969   1.000
    N13     N    0.11070   0.91170   0.42051   1.000
    N14     N    0.36090   0.88177   0.93956   1.000
    N15     N    0.38930   0.58825   0.92050   1.000
    Zr16    Zr   0.89955   0.71934   0.97268   1.000
    O17     O    0.88768   0.68842   0.94784   1.000
    O18     O    0.88549   0.68231   0.96717   1.000
    O19     O    0.89784   0.78004   0.95859   1.000
    O20     O    0.04351   0.68646   0.96108   1.000
    O21     O    0.87620   0.77189   0.96122   1.000
    Zr22    Zr   0.77246   0.47233   0.12083   1.000
    O23     O    0.70989   0.46054   0.11139   1.000
    O24     O    0.72013   0.44814   0.10327   1.000
    O25     O    0.80116   0.44311   0.24415   1.000
    O26     O    0.80029   0.51945   0.08476   1.000
    O27     O    0.80179   0.51674   0.06361   1.000
    Zr28    Zr   0.60044   0.78065   0.47257   1.000
    O29     O    0.62378   0.72809   0.46114   1.000
    O30     O    0.61454   0.81766   0.46705   1.000
    O31     O    0.60214   0.71994   0.45853   1.000
    O32     O    0.61235   0.81154   0.44772   1.000
    O33     O    0.45648   0.81352   0.46100   1.000
    Zr34    Zr   0.72757   0.02768   0.62080   1.000
    O35     O    0.69888   0.05691   0.74417   1.000
    O36     O    0.69826   0.98325   0.56355   1.000
    O37     O    0.69974   0.98054   0.58469   1.000
    O38     O    0.79013   0.03949   0.61136   1.000
    O39     O    0.77989   0.05189   0.60325   1.000
    Zr40    Zr   0.89959   0.28068   0.52730   1.000
    O41     O    0.88771   0.31160   0.55217   1.000
    O42     O    0.88552   0.31770   0.53283   1.000
    O43     O    0.87623   0.22813   0.53869   1.000
    O44     O    0.04354   0.31357   0.53892   1.000
    O45     O    0.89787   0.21998   0.54140   1.000
    Zr46    Zr   0.77245   0.52767   0.37920   1.000
    O47     O    0.70988   0.53945   0.38864   1.000
    O48     O    0.80114   0.55689   0.25588   1.000
    O49     O    0.72011   0.55186   0.39676   1.000
    O50     O    0.80030   0.48055   0.41528   1.000
    O51     O    0.80179   0.48326   0.43642   1.000
    Zr52    Zr   0.60046   0.21935   0.02748   1.000
    O53     O    0.61237   0.18846   0.05231   1.000
    O54     O    0.62380   0.27191   0.03890   1.000
    O55     O    0.60216   0.28006   0.04152   1.000
    O56     O    0.61456   0.18234   0.03298   1.000
    O57     O    0.45650   0.18647   0.03903   1.000
    Zr58    Zr   0.72756   0.97233   0.87923   1.000
    O59     O    0.69974   0.01947   0.91533   1.000
    O60     O    0.69886   0.94310   0.75578   1.000
    O61     O    0.77988   0.94813   0.89677   1.000
    O62     O    0.79012   0.96053   0.88866   1.000
    O63     O    0.69826   0.01676   0.93648   1.000
    Zr64    Zr   0.10044   0.28067   0.02730   1.000
    O65     O    0.11231   0.31159   0.05216   1.000
    O66     O    0.12379   0.22812   0.03878   1.000
    O67     O    0.95648   0.31355   0.03892   1.000
    O68     O    0.10215   0.21997   0.04141   1.000
    O69     O    0.11451   0.31770   0.03283   1.000
    Zr70    Zr   0.22753   0.52768   0.87922   1.000
    O71     O    0.19970   0.48055   0.91529   1.000
    O72     O    0.19884   0.55690   0.75590   1.000
    O73     O    0.19820   0.48327   0.93644   1.000
    O74     O    0.27986   0.55187   0.89676   1.000
    O75     O    0.29010   0.53947   0.88865   1.000
    Zr76    Zr   0.39956   0.21936   0.52740   1.000
    O77     O    0.38546   0.18235   0.53294   1.000
    O78     O    0.38765   0.18847   0.55227   1.000
    O79     O    0.37622   0.27192   0.53885   1.000
    O80     O    0.54351   0.18648   0.53898   1.000
    O81     O    0.39785   0.28007   0.54147   1.000
    Zr82    Zr   0.27242   0.97232   0.37923   1.000
    O83     O    0.22010   0.94812   0.39677   1.000
    O84     O    0.30025   0.01946   0.41532   1.000
    O85     O    0.30112   0.94310   0.25586   1.000
    O86     O    0.30173   0.01676   0.43648   1.000
    O87     O    0.20987   0.96052   0.38867   1.000
    Zr88    Zr   0.10041   0.71932   0.47267   1.000
    O89     O    0.12377   0.77188   0.46122   1.000
    O90     O    0.11448   0.68230   0.46717   1.000
    O91     O    0.11228   0.68841   0.44783   1.000
    O92     O    0.95645   0.68644   0.46107   1.000
    O93     O    0.10213   0.78003   0.45859   1.000
    Zr94    Zr   0.22754   0.47234   0.62083   1.000
    O95     O    0.19885   0.44312   0.74415   1.000
    O96     O    0.27988   0.44815   0.60327   1.000
    O97     O    0.29011   0.46055   0.61139   1.000
    O98     O    0.19970   0.51946   0.58476   1.000
    O99     O    0.19820   0.51675   0.56361   1.000
    Zr100   Zr   0.39953   0.78066   0.97257   1.000
    O101    O    0.37619   0.72810   0.96114   1.000
    O102    O    0.38762   0.81155   0.94772   1.000
    O103    O    0.38543   0.81766   0.96706   1.000
    O104    O    0.54350   0.81354   0.96100   1.000
    O105    O    0.39783   0.71995   0.95853   1.000
    Zr106   Zr   0.27244   0.02768   0.12082   1.000
    O107    O    0.30025   0.98054   0.08470   1.000
    O108    O    0.30113   0.05691   0.24419   1.000
    O109    O    0.22012   0.05188   0.10327   1.000
    O110    O    0.20988   0.03948   0.11138   1.000
    O111    O    0.30173   0.98324   0.06356   1.000
loop_
    _geom_bond_atom_site_label_1
    _geom_bond_atom_site_label_2
    _geom_bond_distance
    _geom_bond_site_symmetry_2
    _ccdc_geom_bond_type
    Zr16   O17       0.85134      .   S
    N1     O17       1.70742      .   S
    Zr16   O18       0.90159      .   S
    N1     O18       1.61749      .   S
    Zr16   O19       1.45749      .   S
    N0     O19       3.18492      .   S
    Zr16   O20       2.06264  1_655   S
    N15    O20       5.16630      .   S
    Zr16   O21       1.29697      .   S
    N0     O21       3.38520      .   S
    Zr22   O23       0.88538      .   S
    N7     O23       1.82224      .   S
    Zr22   O24       0.94216      .   S
    N7     O24       1.72620      .   S
    Zr22   O25       2.15617      .   S
    N4     O25       5.40349      .   S
    Zr22   O26       1.31446      .   S
    N1     O26       3.41929  1_556   S
    Zr22   O27       1.45790      .   S
    N1     O27       3.23413  1_556   S
    Zr28   O29       1.29685      .   S
    N3     O29       3.38500      .   S
    Zr28   O30       0.90143      .   S
    N2     O30       1.61720      .   S
    Zr28   O31       1.45739      .   S
    N3     O31       3.18472      .   S
    Zr28   O32       0.85132      .   S
    N2     O32       1.70700      .   S
    Zr28   O33       2.06264      .   S
    N13    O33       5.16621      .   S
    Zr34   O35       2.15636      .   S
    N6     O35       5.40371  1_554   S
    Zr34   O36       1.45815  1_545   S
    N2     O36       3.23481      .   S
    Zr34   O37       1.31468  1_545   S
    N2     O37       3.42000      .   S
    Zr34   O38       0.88536      .   S
    N5     O38       1.82272      .   S
    Zr34   O39       0.94233      .   S
    N5     O39       1.72648      .   S
    Zr40   O41       0.85154      .   S
    N4     O41       1.70743      .   S
    Zr40   O42       0.90161      .   S
    N4     O42       1.61763      .   S
    Zr40   O43       1.29676      .   S
    N5     O43       3.38538      .   S
    Zr40   O44       2.06268  1_655   S
    N11    O44       5.16634      .   S
    Zr40   O45       1.45744      .   S
    N5     O45       3.18485      .   S
    Zr46   O47       0.88533      .   S
    N3     O47       1.82221      .   S
    Zr46   O48       2.15603      .   S
    N1     O48       5.40327  1_556   S
    Zr46   O49       0.94215      .   S
    N3     O49       1.72614      .   S
    Zr46   O50       1.31448      .   S
    N4     O50       3.41937      .   S
    Zr46   O51       1.45796      .   S
    N4     O51       3.23418      .   S
    Zr52   O53       0.85113      .   S
    N6     O53       1.70687      .   S
    Zr52   O54       1.29677      .   S
    N7     O54       3.38481      .   S
    Zr52   O55       1.45729      .   S
    N7     O55       3.18453      .   S
    Zr52   O56       0.90137      .   S
    N6     O56       1.61693      .   S
    Zr52   O57       2.06265      .   S
    N9     O57       5.16630      .   S
    Zr58   O59       1.31451  1_565   S
    N6     O59       3.41939  1_554   S
    Zr58   O60       2.15767      .   S
    N2     O60       5.40324      .   S
    Zr58   O61       0.94227      .   S
    N0     O61       1.72638      .   S
    Zr58   O62       0.88535      .   S
    N0     O62       1.82257      .   S
    Zr58   O63       1.45796  1_565   S
    N6     O63       3.23423  1_554   S
    Zr64   O65       0.85154      .   S
    N8     O65       1.70749      .   S
    Zr64   O66       1.29702      .   S
    N9     O66       3.38530      .   S
    Zr64   O67       2.06267  1_455   S
    N7     O67       5.16636      .   S
    Zr64   O68       1.45754      .   S
    N9     O68       3.18501      .   S
    Zr64   O69       0.90164      .   S
    N8     O69       1.61769      .   S
    Zr70   O71       1.31444      .   S
    N8     O71       3.41922  1_554   S
    Zr70   O72       2.15618      .   S
    N12    O72       5.40353      .   S
    Zr70   O73       1.45788      .   S
    N8     O73       3.23407  1_554   S
    Zr70   O74       0.94209      .   S
    N15    O74       1.72621      .   S
    Zr70   O75       0.88534      .   S
    N15    O75       1.82224      .   S
    Zr76   O77       0.90147      .   S
    N10    O77       1.61730      .   S
    Zr76   O78       0.85145      .   S
    N10    O78       1.70704      .   S
    Zr76   O79       1.29689      .   S
    N11    O79       3.38505      .   S
    Zr76   O80       2.06267      .   S
    N5     O80       5.16624      .   S
    Zr76   O81       1.45743      .   S
    N11    O81       3.18476      .   S
    Zr82   O83       0.94230      .   S
    N13    O83       1.72640      .   S
    Zr82   O84       1.31458  1_565   S
    N10    O84       3.41987      .   S
    Zr82   O85       2.15640      .   S
    N14    O85       5.40399  1_556   S
    Zr82   O86       1.45812  1_565   S
    N10    O86       3.23459      .   S
    Zr82   O87       0.88535      .   S
    N13    O87       1.82262      .   S
    Zr88   O89       1.29692      .   S
    N13    O89       3.38505      .   S
    Zr88   O90       0.90155      .   S
    N12    O90       1.61739      .   S
    Zr88   O91       0.85129      .   S
    N12    O91       1.70734      .   S
    Zr88   O92       2.06266  1_455   S
    N3     O92       5.16631      .   S
    Zr88   O93       1.45741      .   S
    N13    O93       3.18479      .   S
    Zr94   O95       2.15612      .   S
    N8     O95       5.40338  1_554   S
    Zr94   O96       0.94215      .   S
    N11    O96       1.72619      .   S
    Zr94   O97       0.88534      .   S
    N11    O97       1.82228      .   S
    Zr94   O98       1.31444      .   S
    N12    O98       3.41927      .   S
    Zr94   O99       1.45789      .   S
    N12    O99       3.23410      .   S
    Zr100  O101      1.29679      .   S
    N15    O101      3.38486      .   S
    Zr100  O102      0.85124      .   S
    N14    O102      1.70688      .   S
    Zr100  O103      0.90137      .   S
    N14    O103      1.61705      .   S
    Zr100  O104      2.06269      .   S
    N0     O104      5.16628      .   S
    Zr100  O105      1.45731      .   S
    N15    O105      3.18458      .   S
    Zr106  O107      1.31464  1_545   S
    N14    O107      3.41963  1_556   S
    Zr106  O108      2.15637      .   S
    N10    O108      5.40390      .   S
    Zr106  O109      0.94230      .   S
    N9     O109      1.72644      .   S
    Zr106  O110      0.88536      .   S
    N9     O110      1.82264      .   S
    Zr106  O111      1.45806  1_545   S
    N14    O111      3.23454  1_556   S
