# CIF file generated by openbabel 2.4.90, see http://openbabel.sf.net
data_I
_chemical_name_common ''
_cell_length_a 13.201
_cell_length_b 23.707
_cell_length_c 16.267
_cell_angle_alpha 90.023
_cell_angle_beta 89.995
_cell_angle_gamma 90
_space_group_name_H-M_alt 'P 1'
_space_group_name_Hall 'P 1'
loop_
    _symmetry_equiv_pos_as_xyz
    x,y,z
loop_
    _atom_site_label
    _atom_site_type_symbol
    _atom_site_fract_x
    _atom_site_fract_y
    _atom_site_fract_z
    _atom_site_occupancy
    Zr0     Zr   0.89955   0.71934   0.97268   1.000
    Zr1     Zr   0.77246   0.47233   0.12083   1.000
    Zr2     Zr   0.60044   0.78065   0.47257   1.000
    Zr3     Zr   0.72757   0.02768   0.62080   1.000
    Zr4     Zr   0.89959   0.28068   0.52730   1.000
    Zr5     Zr   0.77245   0.52767   0.37920   1.000
    Zr6     Zr   0.60046   0.21935   0.02748   1.000
    Zr7     Zr   0.72756   0.97233   0.87923   1.000
    Zr8     Zr   0.10044   0.28067   0.02730   1.000
    Zr9     Zr   0.22753   0.52768   0.87922   1.000
    Zr10    Zr   0.39956   0.21936   0.52740   1.000
    Zr11    Zr   0.27242   0.97232   0.37923   1.000
    Zr12    Zr   0.10041   0.71932   0.47267   1.000
    Zr13    Zr   0.22754   0.47234   0.62083   1.000
    Zr14    Zr   0.39953   0.78066   0.97257   1.000
    Zr15    Zr   0.27244   0.02768   0.12082   1.000
    N16     N    0.88929   0.91172   0.92051   1.000
    O17     O    0.85285   0.82444   0.94977   1.000
    O18     O    0.68746   0.84641   0.94942   1.000
    O19     O    0.89613   0.84074   0.94451   1.000
    O20     O    0.83220   0.92392   0.91432   1.000
    O21     O    0.85267   0.94873   0.89810   1.000
    N22     N    0.86099   0.61817   0.93969   1.000
    O23     O    0.83113   0.56115   0.00640   1.000
    O24     O    0.87142   0.64529   0.96167   1.000
    O25     O    0.87581   0.65750   0.92300   1.000
    O26     O    0.82984   0.58612   0.13257   1.000
    O27     O    0.82813   0.56658   0.04869   1.000
    N28     N    0.63907   0.88176   0.43954   1.000
    O29     O    0.66895   0.93881   0.50629   1.000
    O30     O    0.62864   0.85467   0.46153   1.000
    O31     O    0.62425   0.84243   0.42286   1.000
    O32     O    0.67016   0.91387   0.63233   1.000
    O33     O    0.67191   0.93340   0.54859   1.000
    N34     N    0.61068   0.58823   0.42050   1.000
    O35     O    0.81250   0.65356   0.44948   1.000
    O36     O    0.64712   0.67553   0.44971   1.000
    O37     O    0.60384   0.65923   0.44448   1.000
    O38     O    0.66778   0.57604   0.41432   1.000
    O39     O    0.64731   0.55124   0.39807   1.000
    N40     N    0.86101   0.38185   0.56036   1.000
    O41     O    0.83114   0.43886   0.49365   1.000
    O42     O    0.87144   0.35473   0.53837   1.000
    O43     O    0.87584   0.34251   0.57703   1.000
    O44     O    0.82986   0.41389   0.36748   1.000
    O45     O    0.82814   0.43343   0.45136   1.000
    N46     N    0.88930   0.08830   0.57949   1.000
    O47     O    0.85287   0.17558   0.55007   1.000
    O48     O    0.68747   0.15361   0.55057   1.000
    O49     O    0.89614   0.15928   0.55550   1.000
    O50     O    0.83221   0.07610   0.58570   1.000
    O51     O    0.85268   0.05129   0.60192   1.000
    N52     N    0.63909   0.11824   0.06045   1.000
    O53     O    0.66896   0.06120   0.99373   1.000
    O54     O    0.62866   0.14534   0.03849   1.000
    O55     O    0.62428   0.15757   0.07714   1.000
    O56     O    0.67018   0.08614   0.86754   1.000
    O57     O    0.67192   0.06661   0.95143   1.000
    N58     N    0.61070   0.41175   0.07954   1.000
    O59     O    0.64714   0.32446   0.05033   1.000
    O60     O    0.81253   0.34643   0.05055   1.000
    O61     O    0.60387   0.34077   0.05556   1.000
    O62     O    0.66779   0.42395   0.08572   1.000
    O63     O    0.64733   0.44875   0.10195   1.000
    N64     N    0.13900   0.38184   0.06035   1.000
    O65     O    0.16887   0.43885   0.99365   1.000
    O66     O    0.12858   0.35472   0.03836   1.000
    O67     O    0.12418   0.34250   0.07703   1.000
    O68     O    0.17016   0.41389   0.86748   1.000
    O69     O    0.17187   0.43343   0.95136   1.000
    N70     N    0.11070   0.08829   0.07952   1.000
    O71     O    0.14714   0.17557   0.05026   1.000
    O72     O    0.31254   0.15359   0.05058   1.000
    O73     O    0.10387   0.15927   0.05552   1.000
    O74     O    0.16780   0.07609   0.08572   1.000
    O75     O    0.14732   0.05128   0.10194   1.000
    N76     N    0.36092   0.11824   0.56047   1.000
    O77     O    0.33105   0.06120   0.49373   1.000
    O78     O    0.37135   0.14534   0.53848   1.000
    O79     O    0.37574   0.15758   0.57714   1.000
    O80     O    0.32983   0.08614   0.36755   1.000
    O81     O    0.32809   0.06660   0.45142   1.000
    N82     N    0.38931   0.41177   0.57952   1.000
    O83     O    0.35288   0.32448   0.55030   1.000
    O84     O    0.18749   0.34645   0.55054   1.000
    O85     O    0.39615   0.34078   0.55553   1.000
    O86     O    0.33222   0.42396   0.58570   1.000
    O87     O    0.35268   0.44877   0.60196   1.000
    N88     N    0.13898   0.61816   0.43969   1.000
    O89     O    0.16886   0.56115   0.50640   1.000
    O90     O    0.12855   0.64528   0.46166   1.000
    O91     O    0.12416   0.65750   0.42300   1.000
    O92     O    0.17014   0.58612   0.63257   1.000
    O93     O    0.17186   0.56658   0.54869   1.000
    N94     N    0.11070   0.91170   0.42051   1.000
    O95     O    0.14712   0.82443   0.44976   1.000
    O96     O    0.31252   0.84640   0.44944   1.000
    O97     O    0.10385   0.84073   0.44450   1.000
    O98     O    0.16778   0.92391   0.41432   1.000
    O99     O    0.14731   0.94871   0.39810   1.000
    N100    N    0.36090   0.88177   0.93956   1.000
    O101    O    0.33103   0.93881   0.00630   1.000
    O102    O    0.37133   0.85467   0.96154   1.000
    O103    O    0.37571   0.84244   0.92288   1.000
    O104    O    0.32981   0.91387   0.13249   1.000
    O105    O    0.32807   0.93340   0.04859   1.000
    N106    N    0.38930   0.58825   0.92050   1.000
    O107    O    0.35285   0.67555   0.94972   1.000
    O108    O    0.18747   0.65357   0.94948   1.000
    O109    O    0.39613   0.65924   0.94448   1.000
    O110    O    0.33220   0.57606   0.91430   1.000
    O111    O    0.35267   0.55126   0.89807   1.000
loop_
    _geom_bond_atom_site_label_1
    _geom_bond_atom_site_label_2
    _geom_bond_distance
    _geom_bond_site_symmetry_2
    _ccdc_geom_bond_type
    N16    O17       2.17717      .   S
    Zr0    O17       2.59394      .   S
    N16    O18       3.11734      .   S
    Zr14   O18       4.12538      .   S
    N16    O19       1.72991      .   S
    Zr0    O19       2.91497      .   S
    N16    O20       0.81356      .   S
    Zr7    O20       1.88454      .   S
    N16    O21       1.06609      .   S
    Zr7    O21       1.77069      .   S
    N22    O23       1.77790  1_556   S
    Zr1    O23       2.91580      .   S
    N22    O24       0.74826      .   S
    Zr0    O24       1.80318      .   S
    N22    O25       0.99083      .   S
    Zr0    O25       1.70268      .   S
    N22    O26       3.25455  1_556   S
    Zr5    O26       4.31207      .   S
    N22    O27       2.19761  1_556   S
    Zr1    O27       2.62892      .   S
    N28    O29       1.77831      .   S
    Zr3    O29       2.91630  1_545   S
    N28    O30       0.74816      .   S
    Zr2    O30       1.80286      .   S
    N28    O31       0.99051      .   S
    Zr2    O31       1.70263      .   S
    N28    O32       3.25282      .   S
    Zr7    O32       4.31534      .   S
    N28    O33       2.19808      .   S
    Zr3    O33       2.62935  1_545   S
    N34    O35       3.11740      .   S
    Zr12   O35       4.12532  1_455   S
    N34    O36       2.17705      .   S
    Zr2    O36       2.59371      .   S
    N34    O37       1.72982      .   S
    Zr2    O37       2.91477      .   S
    N34    O38       0.81345      .   S
    Zr5    O38       1.88429      .   S
    N34    O39       1.06577      .   S
    Zr5    O39       1.77067      .   S
    N40    O41       1.77789      .   S
    Zr5    O41       2.91591      .   S
    N40    O42       0.74835      .   S
    Zr4    O42       1.80322      .   S
    N40    O43       0.99076      .   S
    Zr4    O43       1.70307      .   S
    N40    O44       3.25464      .   S
    Zr1    O44       4.31234      .   S
    N40    O45       2.19764      .   S
    Zr5    O45       2.62896      .   S
    N46    O47       2.17769      .   S
    Zr4    O47       2.59352      .   S
    N46    O48       3.11731      .   S
    Zr10   O48       4.12534      .   S
    N46    O49       1.72987      .   S
    Zr4    O49       2.91489      .   S
    N46    O50       0.81357      .   S
    Zr3    O50       1.88465      .   S
    N46    O51       1.06623      .   S
    Zr3    O51       1.77073      .   S
    N52    O53       1.77793  1_554   S
    Zr7    O53       2.91592  1_565   S
    N52    O54       0.74790      .   S
    Zr6    O54       1.80273      .   S
    N52    O55       0.99053      .   S
    Zr6    O55       1.70226      .   S
    N52    O56       3.25465  1_554   S
    Zr3    O56       4.31272      .   S
    N52    O57       2.19763  1_554   S
    Zr7    O57       2.62902  1_565   S
    N58    O59       2.17696      .   S
    Zr6    O59       2.59355      .   S
    N58    O60       3.11743      .   S
    Zr8    O60       4.12535  1_455   S
    N58    O61       1.72973      .   S
    Zr6    O61       2.91458      .   S
    N58    O62       0.81349      .   S
    Zr1    O62       1.88431      .   S
    N58    O63       1.06573      .   S
    Zr1    O63       1.77076      .   S
    N64    O65       1.77785  1_554   S
    Zr9    O65       2.91576      .   S
    N64    O66       0.74839      .   S
    Zr8    O66       1.80328      .   S
    N64    O67       0.99078      .   S
    Zr8    O67       1.70308      .   S
    N64    O68       3.25458  1_554   S
    Zr13   O68       4.31224      .   S
    N64    O69       2.19756  1_554   S
    Zr9    O69       2.62888      .   S
    N70    O71       2.17720      .   S
    Zr8    O71       2.59404      .   S
    N70    O72       3.11741      .   S
    Zr6    O72       4.12531      .   S
    N70    O73       1.72993      .   S
    Zr8    O73       2.91508      .   S
    N70    O74       0.81357      .   S
    Zr15   O74       1.88459      .   S
    N70    O75       1.06614      .   S
    Zr15   O75       1.77073      .   S
    N76    O77       1.77814      .   S
    Zr11   O77       2.91623  1_565   S
    N76    O78       0.74816      .   S
    Zr10   O78       1.80293      .   S
    N76    O79       0.99050      .   S
    Zr10   O79       1.70291      .   S
    N76    O80       3.25483      .   S
    Zr15   O80       4.31274      .   S
    N76    O81       2.19812      .   S
    Zr11   O81       2.62916  1_565   S
    N82    O83       2.17705      .   S
    Zr10   O83       2.59378      .   S
    N82    O84       3.11739      .   S
    Zr4    O84       4.12536  1_655   S
    N82    O85       1.72982      .   S
    Zr10   O85       2.91486      .   S
    N82    O86       0.81347      .   S
    Zr13   O86       1.88431      .   S
    N82    O87       1.06586      .   S
    Zr13   O87       1.77067      .   S
    N88    O89       1.77787      .   S
    Zr13   O89       2.91578      .   S
    N88    O90       0.74819      .   S
    Zr12   O90       1.80310      .   S
    N88    O91       0.99082      .   S
    Zr12   O91       1.70257      .   S
    N88    O92       3.25466      .   S
    Zr9    O92       4.31237      .   S
    N88    O93       2.19760      .   S
    Zr13   O93       2.62887      .   S
    N94    O95       2.17708      .   S
    Zr12   O95       2.59385      .   S
    N94    O96       3.11732      .   S
    Zr2    O96       4.12527      .   S
    N94    O97       1.72984      .   S
    Zr12   O97       2.91482      .   S
    N94    O98       0.81353      .   S
    Zr11   O98       1.88461      .   S
    N94    O99       1.06612      .   S
    Zr11   O99       1.77069      .   S
    N100   O101      1.77814  1_556   S
    Zr15   O101      2.91612  1_545   S
    N100   O102      0.74805      .   S
    Zr14   O102      1.80274      .   S
    N100   O103      0.99047      .   S
    Zr14   O103      1.70248      .   S
    N100   O104      3.25489  1_556   S
    Zr11   O104      4.31280      .   S
    N100   O105      2.19766  1_556   S
    Zr15   O105      2.62929  1_545   S
    N106   O107      2.17700      .   S
    Zr14   O107      2.59358      .   S
    N106   O108      3.11741      .   S
    Zr0    O108      4.12528  1_655   S
    N106   O109      1.72976      .   S
    Zr14   O109      2.91462      .   S
    N106   O110      0.81352      .   S
    Zr9    O110      1.88417      .   S
    N106   O111      1.06580      .   S
    Zr9    O111      1.77069      .   S
