# CIF file generated by openbabel 2.4.90, see http://openbabel.sf.net
data_I
_chemical_name_common ''
_cell_length_a 13.273
_cell_length_b 14.197
_cell_length_c 17.285
_cell_angle_alpha 66.122
_cell_angle_beta 87.262
_cell_angle_gamma 89.829
_space_group_name_H-M_alt 'P 1'
_space_group_name_Hall 'P 1'
loop_
    _symmetry_equiv_pos_as_xyz
    x,y,z
loop_
    _atom_site_label
    _atom_site_type_symbol
    _atom_site_fract_x
    _atom_site_fract_y
    _atom_site_fract_z
    _atom_site_occupancy
    H0      H    0.08038   0.72211   0.25810   1.000
    H1      H    0.00000   0.81243   0.99806   1.000
    H2      H    0.23417   0.98072   0.06048   1.000
    H3      H    0.16583   0.10041   0.93623   1.000
    H4      H    0.26830   0.03911   0.90387   1.000
    H5      H    0.07641   0.11037   0.80185   1.000
    H6      H    0.15205   0.21515   0.29532   1.000
    H7      H    0.10489   0.29574   0.50874   1.000
    H8      H    0.30020   0.04495   0.52823   1.000
    H9      H    0.20417   0.28380   0.62555   1.000
    H10     H    0.10432   0.18952   0.65340   1.000
    H11     H    0.30311   0.14599   0.74860   1.000
    H12     H    0.56864   0.70051   0.29650   1.000
    H13     H    0.72841   0.47022   0.49437   1.000
    H14     H    0.49212   0.64027   0.55809   1.000
    H15     H    0.70278   0.37245   0.63179   1.000
    H16     H    0.77822   0.48093   0.62297   1.000
    H17     H    0.65050   0.33831   0.78311   1.000
    H18     H    0.82440   0.49641   0.74676   1.000
    H19     H    0.74836   0.47367   0.89058   1.000
    H20     H    0.85433   0.39545   0.89471   1.000
    H21     H    0.79921   0.41661   0.01493   1.000
    H22     H    0.66800   0.20893   0.25655   1.000
    H23     H    0.60356   0.16676   0.03040   1.000
    H24     H    0.92153   0.27718   0.74261   1.000
    H25     H    0.00046   0.18498   0.00000   1.000
    H26     H    0.76798   0.01869   0.94058   1.000
    H27     H    0.83638   0.89770   0.06480   1.000
    H28     H    0.73488   0.96094   0.09635   1.000
    H29     H    0.92554   0.88708   0.19961   1.000
    H30     H    0.84583   0.78381   0.70617   1.000
    H31     H    0.89377   0.70349   0.49268   1.000
    H32     H    0.70018   0.95579   0.47233   1.000
    H33     H    0.79573   0.71652   0.37527   1.000
    H34     H    0.89604   0.81017   0.34816   1.000
    H35     H    0.69831   0.85574   0.25156   1.000
    H36     H    0.43246   0.30092   0.70382   1.000
    H37     H    0.27220   0.52987   0.50554   1.000
    H38     H    0.50770   0.35829   0.44269   1.000
    H39     H    0.29767   0.62648   0.36814   1.000
    H40     H    0.22181   0.51808   0.37738   1.000
    H41     H    0.34936   0.66020   0.21699   1.000
    H42     H    0.17613   0.50130   0.25372   1.000
    H43     H    0.25243   0.52441   0.10961   1.000
    H44     H    0.14613   0.60216   0.10569   1.000
    H45     H    0.20001   0.58291   0.98500   1.000
    H46     H    0.33125   0.79140   0.74371   1.000
    H47     H    0.39683   0.83147   0.97054   1.000
    C48     C    0.16144   0.85441   0.16482   1.000
    C49     C    0.09176   0.77250   0.19139   1.000
    C50     C    0.03516   0.75778   0.13078   1.000
    C51     C    0.04920   0.82290   0.04516   1.000
    C52     C    0.12136   0.90293   0.01850   1.000
    C53     C    0.17767   0.91925   0.07849   1.000
    C54     C    0.18686   0.05464   0.89950   1.000
    C55     C    0.15771   0.10796   0.80996   1.000
    C56     C    0.23238   0.12325   0.40737   1.000
    C57     C    0.16954   0.20307   0.35950   1.000
    C58     C    0.12252   0.26263   0.39804   1.000
    C59     C    0.14365   0.24838   0.48097   1.000
    C60     C    0.21169   0.17279   0.52591   1.000
    C61     C    0.25323   0.10806   0.48991   1.000
    C62     C    0.18645   0.20045   0.65424   1.000
    C63     C    0.22144   0.14957   0.74230   1.000
    C64     C    0.52338   0.67946   0.42458   1.000
    C65     C    0.58098   0.65868   0.36354   1.000
    C66     C    0.65335   0.58202   0.39024   1.000
    C67     C    0.67083   0.52867   0.47600   1.000
    C68     C    0.61307   0.55037   0.53710   1.000
    C69     C    0.53794   0.62484   0.51073   1.000
    C70     C    0.70828   0.43637   0.65209   1.000
    C71     C    0.70611   0.39808   0.74625   1.000
    C72     C    0.76955   0.43609   0.78451   1.000
    C73     C    0.77500   0.40782   0.87691   1.000
    C74     C    0.70742   0.29197   0.01197   1.000
    C75     C    0.75395   0.34791   0.05108   1.000
    C76     C    0.74016   0.31794   0.13907   1.000
    C77     C    0.68068   0.23169   0.18860   1.000
    C78     C    0.63049   0.17840   0.14832   1.000
    C79     C    0.64448   0.20759   0.06090   1.000
    C80     C    0.84040   0.14503   0.83606   1.000
    C81     C    0.91065   0.22653   0.80931   1.000
    C82     C    0.96838   0.24056   0.86968   1.000
    C83     C    0.95485   0.17506   0.95527   1.000
    C84     C    0.88225   0.09541   0.98213   1.000
    C85     C    0.82484   0.07987   0.92238   1.000
    C86     C    0.81605   0.94413   0.10121   1.000
    C87     C    0.84431   0.89087   0.19101   1.000
    C88     C    0.76677   0.87661   0.59363   1.000
    C89     C    0.82875   0.79614   0.64185   1.000
    C90     C    0.87561   0.73634   0.60348   1.000
    C91     C    0.85508   0.75099   0.52035   1.000
    C92     C    0.78779   0.82722   0.47504   1.000
    C93     C    0.74648   0.89219   0.51089   1.000
    C94     C    0.81392   0.79977   0.34673   1.000
    C95     C    0.77989   0.85086   0.25832   1.000
    C96     C    0.47691   0.32034   0.57600   1.000
    C97     C    0.41984   0.34207   0.63683   1.000
    C98     C    0.34765   0.41887   0.60983   1.000
    C99     C    0.32971   0.47136   0.52340   1.000
    C100    C    0.38710   0.44883   0.46322   1.000
    C101    C    0.46214   0.37428   0.48988   1.000
    C102    C    0.29186   0.56234   0.34813   1.000
    C103    C    0.29399   0.60024   0.25000   1.000
    C104    C    0.23083   0.56175   0.21589   1.000
    C105    C    0.22547   0.59003   0.12347   1.000
    C106    C    0.29252   0.70676   0.98850   1.000
    C107    C    0.24549   0.65150   0.94908   1.000
    C108    C    0.25899   0.68202   0.86100   1.000
    C109    C    0.31877   0.76820   0.81166   1.000
    C110    C    0.36941   0.82089   0.85230   1.000
    C111    C    0.35563   0.79111   0.93980   1.000
    O112    O    0.12905   0.95905   0.93340   1.000
    O113    O    0.23980   0.15184   0.60590   1.000
    O114    O    0.62260   0.50329   0.62234   1.000
    O115    O    0.71553   0.31736   0.92648   1.000
    O116    O    0.87530   0.03881   0.06718   1.000
    O117    O    0.76035   0.84857   0.39474   1.000
    O118    O    0.37731   0.49515   0.37804   1.000
    O119    O    0.28467   0.68073   0.07409   1.000
loop_
    _geom_bond_atom_site_label_1
    _geom_bond_atom_site_label_2
    _geom_bond_distance
    _geom_bond_site_symmetry_2
    _ccdc_geom_bond_type
    H25    C83       1.05706  1_454   S
    C74    C75       1.39512      .   S
    C74    C79       1.40234      .   S
    C74    O115      1.37073  1_554   S
    H21    C75       1.08486      .   S
    C52    C51       1.40037      .   S
    C52    C53       1.39889      .   S
    C52    O112      1.35877  1_554   S
    H23    C79       1.08885      .   S
    C51    C50       1.39525      .   S
    C51    H1        1.12283  1_554   S
    C75    C76       1.40629      .   S
    H2     C53       1.08756      .   S
    C79    C78       1.39863      .   S
    H27    C86       1.10537      .   S
    O116   C86       1.44689  1_545   S
    O116   C84       1.35886  1_554   S
    O119   C105      1.43390      .   S
    O119   C106      1.37075  1_554   S
    C53    C48       1.40673      .   S
    H28    C86       1.10259      .   S
    C86    C87       1.49183      .   S
    H44    C105      1.10455      .   S
    H43    C105      1.10628      .   S
    C105   C104      1.48647      .   S
    C50    C49       1.39965      .   S
    C76    C77       1.39575      .   S
    C78    C77       1.40522      .   S
    C48    C49       1.39708      .   S
    C77    H22       1.08923      .   S
    C87    H29       1.09350      .   S
    C87    C95       1.33431      .   S
    C49    H0        1.08645      .   S
    C104   C103      1.28839      .   S
    C104   H42       1.09331      .   S
    H41    C103      1.07731      .   S
    C103   C102      1.55690      .   S
    H35    C95       1.09360      .   S
    C95    C94       1.49403      .   S
    H6     C57       1.08824      .   S
    H12    C65       1.08752      .   S
    C94    H34       1.10312      .   S
    C94    H33       1.10311      .   S
    C94    O117      1.44240      .   S
    C102   H39       1.10125      .   S
    C102   H40       1.10290      .   S
    C102   O118      1.45391      .   S
    C57    C58       1.40040      .   S
    C57    C56       1.40212      .   S
    C65    C66       1.39629      .   S
    C65    C64       1.39942      .   S
    O118   C100      1.36053      .   S
    C66    C67       1.39562      .   S
    O117   C92       1.36309      .   S
    C58    C59       1.40630      .   S
    C56    C61       1.39530      .   S
    C64    C69       1.39565      .   S
    H38    C101      1.08839      .   S
    C100   C101      1.40247      .   S
    C100   C99       1.39887      .   S
    H32    C93       1.08894      .   S
    C92    C93       1.40089      .   S
    C92    C91       1.39893      .   S
    C67    H13       1.08609      .   S
    C67    C68       1.40811      .   S
    C59    H7        1.08762      .   S
    C59    C60       1.39887      .   S
    C101   C96       1.39460      .   S
    C61    C60       1.40100      .   S
    C61    H8        1.08898      .   S
    H31    C91       1.08761      .   S
    H37    C99       1.08595      .   S
    C69    C68       1.40250      .   S
    C69    H14       1.08841      .   S
    C93    C88       1.39543      .   S
    C91    C90       1.40619      .   S
    C99    C98       1.40553      .   S
    C60    O113      1.36201      .   S
    C68    O114      1.36147      .   S
    C96    C97       1.39982      .   S
    C88    C89       1.40205      .   S
    C90    C89       1.40029      .   S
    O113   C62       1.44329      .   S
    C98    C97       1.39617      .   S
    O114   C70       1.45403      .   S
    H16    C70       1.10291      .   S
    H9     C62       1.10316      .   S
    H15    C70       1.10115      .   S
    C97    H36       1.08647      .   S
    C89    H30       1.08826      .   S
    C70    C71       1.49152      .   S
    H10    C62       1.10312      .   S
    C62    C63       1.49322      .   S
    C63    H11       1.09367      .   S
    C63    C55       1.33468      .   S
    H24    C81       1.08659      .   S
    H46    C109      1.08810      .   S
    C71    H17       1.09169      .   S
    C71    C72       1.33502      .   S
    H18    C72       1.09324      .   S
    C72    C73       1.48630      .   S
    H5     C55       1.09347      .   S
    C81    C80       1.39786      .   S
    C81    C82       1.40043      .   S
    C55    C54       1.49165      .   S
    C109   C110      1.40651      .   S
    C109   C108      1.39649      .   S
    C80    C85       1.40675      .   S
    C110   C111      1.39857      .   S
    C108   C107      1.40645      .   S
    C82    C83       1.39550      .   S
    C73    H19       1.10633      .   S
    C73    H20       1.10458      .   S
    C73    O115      1.43423      .   S
    C54    H4        1.10259      .   S
    C54    O112      1.44679  1_545   S
    C54    H3        1.10421      .   S
    C85    H26       1.08755      .   S
    C85    C84       1.39882      .   S
    C111   H47       1.08896      .   S
    C111   C106      1.40244      .   S
    C107   H45       1.08468      .   S
    C107   C106      1.39488      .   S
    C83    C84       1.40062      .   S
