# CIF file generated by openbabel 2.4.90, see http://openbabel.sf.net
data_I
_chemical_name_common ''
_cell_length_a 13.273
_cell_length_b 14.197
_cell_length_c 17.285
_cell_angle_alpha 66.122
_cell_angle_beta 87.262
_cell_angle_gamma 89.829
_space_group_name_H-M_alt 'P 1'
_space_group_name_Hall 'P 1'
loop_
    _symmetry_equiv_pos_as_xyz
    x,y,z
loop_
    _atom_site_label
    _atom_site_type_symbol
    _atom_site_fract_x
    _atom_site_fract_y
    _atom_site_fract_z
    _atom_site_occupancy
    Zn0     Zn   0.89783   0.44378   0.29429   1.000
    Zn1     Zn   0.78103   0.58863   0.16452   1.000
    Zn2     Zn   0.40457   0.98435   0.25804   1.000
    Zn3     Zn   0.73360   0.15613   0.60968   1.000
    Zn4     Zn   0.10207   0.55613   0.70608   1.000
    Zn5     Zn   0.22178   0.41128   0.83588   1.000
    Zn6     Zn   0.59557   0.01558   0.74333   1.000
    Zn7     Zn   0.26659   0.84362   0.39145   1.000
    C8      C    0.22049   0.87388   0.22824   1.000
    C9      C    0.95458   0.67704   0.15649   1.000
    C10     C    0.26908   0.04467   0.37613   1.000
    C11     C    0.04302   0.33646   0.35340   1.000
    C12     C    0.44334   0.75796   0.39799   1.000
    C13     C    0.71543   0.55755   0.32700   1.000
    C14     C    0.78031   0.38969   0.17409   1.000
    C15     C    0.55303   0.09714   0.19720   1.000
    C16     C    0.78015   0.12605   0.77294   1.000
    C17     C    0.04939   0.32101   0.84393   1.000
    C18     C    0.73075   0.95546   0.62478   1.000
    C19     C    0.95465   0.66211   0.64853   1.000
    C20     C    0.55680   0.24174   0.60294   1.000
    C21     C    0.28624   0.44413   0.67292   1.000
    C22     C    0.21820   0.61081   0.82571   1.000
    C23     C    0.44696   0.90225   0.80359   1.000
    O24     O    0.29341   0.93774   0.20186   1.000
    O25     O    0.19178   0.82294   0.30725   1.000
    O26     O    0.95984   0.59589   0.22419   1.000
    O27     O    0.88034   0.69637   0.10687   1.000
    O28     O    0.25309   0.95058   0.43047   1.000
    O29     O    0.31051   0.07024   0.30295   1.000
    O30     O    0.97858   0.36521   0.39768   1.000
    O31     O    0.03601   0.36919   0.27360   1.000
    O32     O    0.45353   0.83477   0.32694   1.000
    O33     O    0.36479   0.74114   0.44913   1.000
    O34     O    0.78651   0.49442   0.35283   1.000
    O35     O    0.69281   0.60455   0.24859   1.000
    O36     O    0.78182   0.48577   0.12083   1.000
    O37     O    0.80830   0.35895   0.24922   1.000
    O38     O    0.49715   0.06120   0.15550   1.000
    O39     O    0.53810   0.06763   0.27652   1.000
    O40     O    0.70679   0.06269   0.79964   1.000
    O41     O    0.80846   0.17682   0.69381   1.000
    O42     O    0.04388   0.40278   0.77674   1.000
    O43     O    0.12428   0.30095   0.89297   1.000
    O44     O    0.74677   0.04945   0.57024   1.000
    O45     O    0.68997   0.93018   0.69818   1.000
    O46     O    0.01940   0.63360   0.60424   1.000
    O47     O    0.96107   0.62920   0.72832   1.000
    O48     O    0.54640   0.16498   0.67401   1.000
    O49     O    0.63547   0.25853   0.55197   1.000
    O50     O    0.21382   0.50557   0.64750   1.000
    O51     O    0.31110   0.39924   0.75096   1.000
    O52     O    0.21492   0.51468   0.87901   1.000
    O53     O    0.19122   0.64185   0.75025   1.000
    O54     O    0.50272   0.93810   0.84546   1.000
    O55     O    0.46199   0.93194   0.72429   1.000
loop_
    _geom_bond_atom_site_label_1
    _geom_bond_atom_site_label_2
    _geom_bond_distance
    _geom_bond_site_symmetry_2
    _ccdc_geom_bond_type
    O27    C9        1.29251      .   S
    O27    Zn1       1.92940      .   S
    O36    Zn1       1.89601      .   S
    O36    C14       1.30016      .   S
    O38    C15       1.29655      .   S
    O38    Zn2       2.01894  1_545   S
    C9     O26       1.27174      .   S
    Zn1    O35       1.90675      .   S
    Zn1    Zn0       2.87092      .   S
    C14    O37       1.26537      .   S
    C15    O39       1.26653      .   S
    O24    C8        1.26303      .   S
    O24    Zn2       2.05441      .   S
    O26    Zn0       2.14616      .   S
    C8     O25       1.29831      .   S
    O35    C13       1.29530      .   S
    O37    Zn0       2.07998      .   S
    Zn2    O39       2.23908  1_565   S
    Zn2    O29       2.07679  1_565   S
    Zn2    O32       2.09011      .   S
    O31    Zn0       2.20131  1_455   S
    O31    C11       1.27289      .   S
    Zn0    O34       2.04040      .   S
    Zn0    O30       2.03687      .   S
    O29    C10       1.26375      .   S
    O25    Zn7       1.91725      .   S
    O32    C12       1.27138      .   S
    C13    O34       1.26654      .   S
    C11    O30       1.29319  1_455   S
    C10    O28       1.29555  1_545   S
    Zn7    O28       1.89977      .   S
    Zn7    O33       1.93597      .   S
    C12    O33       1.29148      .   S
    O49    C20       1.29108      .   S
    O49    Zn3       1.93493      .   S
    O44    Zn3       1.90054      .   S
    O44    C18       1.29558  1_545   S
    C20    O48       1.27144      .   S
    O46    C19       1.29401  1_455   S
    O46    Zn4       2.03032      .   S
    Zn3    O41       1.91681      .   S
    C18    O45       1.26423      .   S
    O50    C21       1.26618      .   S
    O50    Zn4       2.04423      .   S
    C19    O47       1.27161      .   S
    C21    O51       1.29609      .   S
    O48    Zn6       2.09023      .   S
    O41    C16       1.29845      .   S
    O45    Zn6       2.07675  1_565   S
    Zn4    O47       2.22911  1_455   S
    Zn4    O53       2.07632      .   S
    Zn4    O42       2.14377      .   S
    O55    Zn6       2.24643  1_565   S
    O55    C23       1.26607      .   S
    Zn6    O40       2.06015      .   S
    Zn6    O54       2.01826  1_545   S
    O53    C22       1.26568      .   S
    O51    Zn5       1.90391      .   S
    C16    O40       1.26342      .   S
    O42    C17       1.27193      .   S
    C23    O54       1.29697      .   S
    C22    O52       1.30066      .   S
    Zn5    O52       1.89672      .   S
    Zn5    O43       1.93415      .   S
    C17    O43       1.29271      .   S
