# CIF file generated by openbabel 2.4.90, see http://openbabel.sf.net
data_I
_chemical_name_common ''
_cell_length_a 13.273
_cell_length_b 14.197
_cell_length_c 17.285
_cell_angle_alpha 66.122
_cell_angle_beta 87.262
_cell_angle_gamma 89.829
_space_group_name_H-M_alt 'P 1'
_space_group_name_Hall 'P 1'
loop_
    _symmetry_equiv_pos_as_xyz
    x,y,z
loop_
    _atom_site_label
    _atom_site_type_symbol
    _atom_site_fract_x
    _atom_site_fract_y
    _atom_site_fract_z
    _atom_site_occupancy
    N0      N    0.16282   0.05706   0.77515   1.000
    N1      N    0.83828   0.94224   0.22565   1.000
    N2      N    0.68174   0.42864   0.77105   1.000
    N3      N    0.31841   0.57047   0.22913   1.000
    Zr4     Zr   0.63874   0.06499   0.69392   1.000
    O5      O    0.71613   0.99707   0.55567   1.000
    O6      O    0.73151   0.05194   0.85450   1.000
    O7      O    0.52819   0.24537   0.55161   1.000
    O8      O    0.50102   0.89051   0.86123   1.000
    Zr9     Zr   0.86403   0.49739   0.24597   1.000
    O10     O    0.97144   0.69231   0.10268   1.000
    O11     O    0.79251   0.44431   0.10489   1.000
    O12     O    0.99341   0.33785   0.41070   1.000
    O13     O    0.77355   0.49830   0.40540   1.000
    Zr14    Zr   0.13657   0.50238   0.75450   1.000
    O15     O    0.22713   0.50168   0.59488   1.000
    O16     O    0.03008   0.30695   0.89786   1.000
    O17     O    0.20754   0.55541   0.89537   1.000
    O18     O    0.00664   0.66156   0.59016   1.000
    Zr19    Zr   0.36139   0.93485   0.30712   1.000
    O20     O    0.49907   0.10902   0.13951   1.000
    O21     O    0.28408   0.00268   0.44529   1.000
    O22     O    0.47197   0.75426   0.44914   1.000
    O23     O    0.26914   0.94772   0.14648   1.000
loop_
    _geom_bond_atom_site_label_1
    _geom_bond_atom_site_label_2
    _geom_bond_distance
    _geom_bond_site_symmetry_2
    _ccdc_geom_bond_type
    Zr4    O5        3.05294  1_545   S
    N1     O5        6.20318      .   S
    Zr4    O6        3.02704      .   S
    N1     O6        6.19328  1_564   S
    Zr4    O7        3.15984      .   S
    N3     O7        6.37987      .   S
    Zr4    O8        3.40053  1_545   S
    N3     O8        6.49308  1_554   S
    Zr9    O10       3.15627      .   S
    N0     O10       6.34738  1_446   S
    Zr9    O11       3.02140      .   S
    N2     O11       6.11241  1_556   S
    Zr9    O12       3.37786      .   S
    N0     O12       6.44983  1_455   S
    Zr9    O13       2.95791      .   S
    N2     O13       6.05133      .   S
    Zr14   O15       2.96018      .   S
    N3     O15       6.05521      .   S
    Zr14   O16       3.15586      .   S
    N1     O16       6.35151  1_664   S
    Zr14   O17       3.01503      .   S
    N3     O17       6.10770  1_554   S
    Zr14   O18       3.37609      .   S
    N1     O18       6.44493  1_655   S
    Zr19   O20       3.40130  1_565   S
    N2     O20       6.49806  1_556   S
    Zr19   O21       3.05050  1_565   S
    N0     O21       6.19485      .   S
    Zr19   O22       3.15914      .   S
    N2     O22       6.37669      .   S
    Zr19   O23       3.02571      .   S
    N0     O23       6.19541  1_546   S
