# CIF file generated by openbabel 2.4.90, see http://openbabel.sf.net
data_I
_chemical_name_common ''
_cell_length_a 13.273
_cell_length_b 14.197
_cell_length_c 17.285
_cell_angle_alpha 66.122
_cell_angle_beta 87.262
_cell_angle_gamma 89.829
_space_group_name_H-M_alt 'P 1'
_space_group_name_Hall 'P 1'
loop_
    _symmetry_equiv_pos_as_xyz
    x,y,z
loop_
    _atom_site_label
    _atom_site_type_symbol
    _atom_site_fract_x
    _atom_site_fract_y
    _atom_site_fract_z
    _atom_site_occupancy
    Zr0     Zr   0.26659   0.84362   0.39145   1.000
    Zr1     Zr   0.89783   0.44378   0.29429   1.000
    Zr2     Zr   0.78103   0.58863   0.16452   1.000
    Zr3     Zr   0.40457   0.98435   0.25804   1.000
    Zr4     Zr   0.73360   0.15613   0.60968   1.000
    Zr5     Zr   0.10207   0.55613   0.70608   1.000
    Zr6     Zr   0.22178   0.41128   0.83588   1.000
    Zr7     Zr   0.59557   0.01558   0.74333   1.000
    Zr8     Zr   0.22049   0.87388   0.22824   1.000
    Zr9     Zr   0.95458   0.67704   0.15649   1.000
    Zr10    Zr   0.26908   0.04467   0.37613   1.000
    Zr11    Zr   0.04302   0.33646   0.35340   1.000
    Zr12    Zr   0.44334   0.75796   0.39799   1.000
    Zr13    Zr   0.71543   0.55755   0.32700   1.000
    Zr14    Zr   0.78031   0.38969   0.17409   1.000
    Zr15    Zr   0.55303   0.09714   0.19720   1.000
    Zr16    Zr   0.78015   0.12605   0.77294   1.000
    Zr17    Zr   0.04939   0.32101   0.84393   1.000
    Zr18    Zr   0.73075   0.95546   0.62478   1.000
    Zr19    Zr   0.95465   0.66211   0.64853   1.000
    Zr20    Zr   0.55680   0.24174   0.60294   1.000
    Zr21    Zr   0.28624   0.44413   0.67292   1.000
    Zr22    Zr   0.21820   0.61081   0.82571   1.000
    Zr23    Zr   0.44696   0.90225   0.80359   1.000
    Zr24    Zr   0.29341   0.93774   0.20186   1.000
    Zr25    Zr   0.19178   0.82294   0.30725   1.000
    Zr26    Zr   0.95984   0.59589   0.22419   1.000
    Zr27    Zr   0.88034   0.69637   0.10687   1.000
    Zr28    Zr   0.25309   0.95058   0.43047   1.000
    Zr29    Zr   0.31051   0.07024   0.30295   1.000
    Zr30    Zr   0.97858   0.36521   0.39768   1.000
    Zr31    Zr   0.03601   0.36919   0.27360   1.000
    Zr32    Zr   0.45353   0.83477   0.32694   1.000
    Zr33    Zr   0.36479   0.74114   0.44913   1.000
    Zr34    Zr   0.78651   0.49442   0.35283   1.000
    Zr35    Zr   0.69281   0.60455   0.24859   1.000
    Zr36    Zr   0.78182   0.48577   0.12083   1.000
    Zr37    Zr   0.80830   0.35895   0.24922   1.000
    Zr38    Zr   0.49715   0.06120   0.15550   1.000
    Zr39    Zr   0.53810   0.06763   0.27652   1.000
    Zr40    Zr   0.70679   0.06269   0.79964   1.000
    Zr41    Zr   0.80846   0.17682   0.69381   1.000
    Zr42    Zr   0.04388   0.40278   0.77674   1.000
    Zr43    Zr   0.12428   0.30095   0.89297   1.000
    Zr44    Zr   0.74677   0.04945   0.57024   1.000
    Zr45    Zr   0.68997   0.93018   0.69818   1.000
    Zr46    Zr   0.01940   0.63360   0.60424   1.000
    Zr47    Zr   0.96107   0.62920   0.72832   1.000
    Zr48    Zr   0.54640   0.16498   0.67401   1.000
    Zr49    Zr   0.63547   0.25853   0.55197   1.000
    Zr50    Zr   0.21382   0.50557   0.64750   1.000
    Zr51    Zr   0.31110   0.39924   0.75096   1.000
    Zr52    Zr   0.21492   0.51468   0.87901   1.000
    Zr53    Zr   0.19122   0.64185   0.75025   1.000
    Zr54    Zr   0.50272   0.93810   0.84546   1.000
    Zr55    Zr   0.46199   0.93194   0.72429   1.000
    O56     O    0.91746   0.68671   0.13168   1.000
    O57     O    0.83069   0.64250   0.13570   1.000
    O58     O    0.78142   0.53720   0.14268   1.000
    O59     O    0.78106   0.43773   0.14746   1.000
    O60     O    0.52509   0.07917   0.17635   1.000
    O61     O    0.45086   0.02278   0.20677   1.000
    O62     O    0.95721   0.63647   0.19034   1.000
    O63     O    0.73692   0.59659   0.20656   1.000
    O64     O    0.83943   0.51621   0.22941   1.000
    O65     O    0.79431   0.37432   0.21166   1.000
    O66     O    0.54557   0.08238   0.23686   1.000
    O67     O    0.25695   0.90581   0.21505   1.000
    O68     O    0.34899   0.96104   0.22995   1.000
    O69     O    0.92883   0.51984   0.25924   1.000
    O70     O    0.20613   0.84841   0.26775   1.000
    O71     O    0.70412   0.58105   0.28780   1.000
    O72     O    0.85306   0.40136   0.27176   1.000
    O73     O    0.47134   0.02599   0.26728   1.000
    O74     O    0.35754   0.02730   0.28050   1.000
    O75     O    0.42905   0.90956   0.29249   1.000
    O76     O    0.96692   0.40649   0.28395   1.000
    O77     O    0.03952   0.35283   0.31350   1.000
    O78     O    0.84217   0.46910   0.32356   1.000
    O79     O    0.93820   0.40450   0.34598   1.000
    O80     O    0.28979   0.05746   0.33954   1.000
    O81     O    0.22919   0.83328   0.34935   1.000
    O82     O    0.44843   0.79636   0.36247   1.000
    O83     O    0.75097   0.52598   0.33992   1.000
    O84     O    0.01080   0.35084   0.37554   1.000
    O85     O    0.26109   0.99762   0.40330   1.000
    O86     O    0.25984   0.89710   0.41096   1.000
    O87     O    0.31569   0.79238   0.42029   1.000
    O88     O    0.40407   0.74955   0.42356   1.000
    O89     O    0.59613   0.25014   0.57746   1.000
    O90     O    0.68453   0.20733   0.58083   1.000
    O91     O    0.74018   0.10279   0.58996   1.000
    O92     O    0.73876   0.00245   0.59751   1.000
    O93     O    0.55160   0.20336   0.63848   1.000
    O94     O    0.98703   0.64785   0.62639   1.000
    O95     O    0.06074   0.59486   0.65516   1.000
    O96     O    0.77103   0.16648   0.65175   1.000
    O97     O    0.71036   0.94282   0.66148   1.000
    O98     O    0.25003   0.47485   0.66021   1.000
    O99     O    0.15795   0.53085   0.67679   1.000
    O100    O    0.95786   0.64565   0.68843   1.000
    O101    O    0.29867   0.42168   0.71194   1.000
    O102    O    0.57098   0.09028   0.70867   1.000
    O103    O    0.79431   0.15144   0.73337   1.000
    O104    O    0.64277   0.97288   0.72076   1.000
    O105    O    0.03157   0.59267   0.71720   1.000
    O106    O    0.14665   0.59899   0.72816   1.000
    O107    O    0.07298   0.47945   0.74141   1.000
    O108    O    0.52878   0.97376   0.73381   1.000
    O109    O    0.45448   0.91709   0.76394   1.000
    O110    O    0.65118   0.03914   0.77149   1.000
    O111    O    0.54914   0.97684   0.79440   1.000
    O112    O    0.20471   0.62633   0.78798   1.000
    O113    O    0.26644   0.40526   0.79342   1.000
    O114    O    0.74347   0.09437   0.78629   1.000
    O115    O    0.04664   0.36189   0.81034   1.000
    O116    O    0.47484   0.92018   0.82453   1.000
    O117    O    0.21656   0.56274   0.85236   1.000
    O118    O    0.21835   0.46298   0.85745   1.000
    O119    O    0.17303   0.35612   0.86443   1.000
    O120    O    0.08684   0.31098   0.86845   1.000
    N121    N    0.16282   0.05706   0.77515   1.000
    O122    O    0.07885   0.88723   0.95939   1.000
    O123    O    0.17689   0.96060   0.98584   1.000
    O124    O    0.20678   0.07051   0.58345   1.000
    O125    O    0.12280   0.17830   0.57544   1.000
    N126    N    0.83828   0.94224   0.22565   1.000
    O127    O    0.87670   0.82073   0.42583   1.000
    O128    O    0.92358   0.11151   0.04123   1.000
    O129    O    0.82428   0.03889   0.01507   1.000
    O130    O    0.79352   0.92914   0.41743   1.000
    N131    N    0.68174   0.42864   0.77105   1.000
    O132    O    0.63675   0.28320   0.97190   1.000
    O133    O    0.58255   0.57367   0.59117   1.000
    O134    O    0.72099   0.39122   0.96381   1.000
    O135    O    0.68307   0.49921   0.56483   1.000
    N136    N    0.31841   0.57047   0.22913   1.000
    O137    O    0.31768   0.50098   0.43525   1.000
    O138    O    0.41763   0.42575   0.40930   1.000
    O139    O    0.36330   0.71602   0.02854   1.000
    O140    O    0.27850   0.60844   0.03624   1.000
loop_
    _geom_bond_atom_site_label_1
    _geom_bond_atom_site_label_2
    _geom_bond_distance
    _geom_bond_site_symmetry_2
    _ccdc_geom_bond_type
    Zr27   O56       0.64625      .   S
    Zr9    O56       0.64625      .   S
    Zr27   O57       0.96470      .   S
    Zr2    O57       0.96470      .   S
    Zr36   O58       0.94800      .   S
    Zr2    O58       0.94800      .   S
    Zr36   O59       0.65008      .   S
    Zr14   O59       0.65008      .   S
    Zr38   O60       0.64828      .   S
    Zr15   O60       0.64828      .   S
    Zr38   O61       1.00947      .   S
    Zr3    O61       1.00947  1_565   S
    Zr9    O62       0.63587      .   S
    Zr26   O62       0.63587      .   S
    Zr2    O63       0.95337      .   S
    Zr35   O63       0.95337      .   S
    Zr2    O64       1.43546      .   S
    Zr1    O64       1.43546      .   S
    Zr14   O65       0.63268      .   S
    Zr37   O65       0.63268      .   S
    Zr15   O66       0.63327      .   S
    Zr39   O66       0.63327      .   S
    Zr24   O67       0.63152      .   S
    Zr8    O67       0.63152      .   S
    Zr24   O68       1.02721      .   S
    Zr3    O68       1.02721      .   S
    Zr26   O69       1.07308      .   S
    Zr1    O69       1.07308      .   S
    Zr8    O70       0.64915      .   S
    Zr25   O70       0.64915      .   S
    Zr35   O71       0.64765      .   S
    Zr13   O71       0.64765      .   S
    Zr37   O72       1.03999      .   S
    Zr1    O72       1.03999      .   S
    Zr3    O73       1.11954  1_565   S
    Zr39   O73       1.11954      .   S
    Zr3    O74       1.03840  1_565   S
    Zr29   O74       1.03840      .   S
    Zr3    O75       1.04506      .   S
    Zr32   O75       1.04506      .   S
    Zr31   O76       1.10065  1_455   S
    Zr1    O76       1.10065      .   S
    Zr31   O77       0.63645      .   S
    Zr11   O77       0.63645      .   S
    Zr1    O78       1.02020      .   S
    Zr34   O78       1.02020      .   S
    Zr1    O79       1.01843      .   S
    Zr30   O79       1.01843      .   S
    Zr29   O80       0.63188      .   S
    Zr10   O80       0.63188      .   S
    Zr25   O81       0.95863      .   S
    Zr0    O81       0.95863      .   S
    Zr32   O82       0.63569      .   S
    Zr12   O82       0.63569      .   S
    Zr13   O83       0.63327      .   S
    Zr34   O83       0.63327      .   S
    Zr11   O84       0.64659      .   S
    Zr30   O84       0.64659  1_655   S
    Zr10   O85       0.64778  1_545   S
    Zr28   O85       0.64778      .   S
    Zr0    O86       0.94988      .   S
    Zr28   O86       0.94988      .   S
    Zr0    O87       0.96798      .   S
    Zr33   O87       0.96798      .   S
    Zr12   O88       0.64574      .   S
    Zr33   O88       0.64574      .   S
    Zr49   O89       0.64554      .   S
    Zr20   O89       0.64554      .   S
    Zr49   O90       0.96747      .   S
    Zr4    O90       0.96747      .   S
    Zr44   O91       0.95027      .   S
    Zr4    O91       0.95027      .   S
    Zr44   O92       0.64779      .   S
    Zr18   O92       0.64779  1_565   S
    Zr20   O93       0.63572      .   S
    Zr48   O93       0.63572      .   S
    Zr46   O94       0.64700  1_455   S
    Zr19   O94       0.64700      .   S
    Zr46   O95       1.01516      .   S
    Zr5    O95       1.01516      .   S
    Zr4    O96       0.95840      .   S
    Zr41   O96       0.95840      .   S
    Zr18   O97       0.63212      .   S
    Zr45   O97       0.63212      .   S
    Zr50   O98       0.63309      .   S
    Zr21   O98       0.63309      .   S
    Zr50   O99       1.02212      .   S
    Zr5    O99       1.02212      .   S
    Zr19   O100      0.63580      .   S
    Zr47   O100      0.63580      .   S
    Zr21   O101      0.64805      .   S
    Zr51   O101      0.64805      .   S
    Zr48   O102      1.04511      .   S
    Zr7    O102      1.04511      .   S
    Zr41   O103      0.64922      .   S
    Zr16   O103      0.64922      .   S
    Zr45   O104      1.03838      .   S
    Zr7    O104      1.03838  1_545   S
    Zr5    O105      1.11456      .   S
    Zr47   O105      1.11456  1_655   S
    Zr5    O106      1.03816      .   S
    Zr53   O106      1.03816      .   S
    Zr5    O107      1.07189      .   S
    Zr42   O107      1.07189      .   S
    Zr55   O108      1.12322      .   S
    Zr7    O108      1.12322  1_545   S
    Zr55   O109      0.63303      .   S
    Zr23   O109      0.63303      .   S
    Zr7    O110      1.03007      .   S
    Zr40   O110      1.03007      .   S
    Zr7    O111      1.00913  1_545   S
    Zr54   O111      1.00913      .   S
    Zr53   O112      0.63284      .   S
    Zr22   O112      0.63284      .   S
    Zr51   O113      0.95196      .   S
    Zr6    O113      0.95196      .   S
    Zr16   O114      0.63171      .   S
    Zr40   O114      0.63171      .   S
    Zr42   O115      0.63596      .   S
    Zr17   O115      0.63596      .   S
    Zr23   O116      0.64848      .   S
    Zr54   O116      0.64848      .   S
    Zr22   O117      0.65033      .   S
    Zr52   O117      0.65033      .   S
    Zr6    O118      0.94836      .   S
    Zr52   O118      0.94836      .   S
    Zr6    O119      0.96707      .   S
    Zr43   O119      0.96707      .   S
    Zr17   O120      0.64636      .   S
    Zr43   O120      0.64636      .   S
    N121   O122      3.26465  1_545   S
    Zr9    O122      3.80707  1_654   S
    N121   O123      3.34642  1_545   S
    Zr8    O123      3.93150  1_554   S
    N121   O124      3.26500      .   S
    Zr10   O124      3.79995      .   S
    N121   O125      3.24364      .   S
    Zr11   O125      3.78020      .   S
    N126   O127      3.24643      .   S
    Zr19   O127      3.78266      .   S
    N126   O128      3.26929  1_565   S
    Zr17   O128      3.81298  1_456   S
    N126   O129      3.34439  1_565   S
    Zr16   O129      3.92783  1_556   S
    N126   O130      3.26949      .   S
    Zr18   O130      3.80486      .   S
    N131   O132      3.26787      .   S
    Zr15   O132      3.82802  1_554   S
    N131   O133      3.29128      .   S
    Zr12   O133      3.85963      .   S
    N131   O134      3.22286      .   S
    Zr14   O134      3.74700  1_554   S
    N131   O135      3.28817      .   S
    Zr13   O135      3.85323      .   S
    N136   O137      3.28911      .   S
    Zr21   O137      3.85430      .   S
    N136   O138      3.29388      .   S
    Zr20   O138      3.86296      .   S
    N136   O139      3.26442      .   S
    Zr23   O139      3.82417  1_556   S
    N136   O140      3.22476      .   S
    Zr22   O140      3.75018  1_556   S
