# CIF file generated by openbabel 2.4.90, see http://openbabel.sf.net
data_I
_chemical_name_common ''
_cell_length_a 14.594
_cell_length_b 16.877
_cell_length_c 17.459
_cell_angle_alpha 90.002
_cell_angle_beta 95.55
_cell_angle_gamma 90.028
_space_group_name_H-M_alt 'P 1'
_space_group_name_Hall 'P 1'
loop_
    _symmetry_equiv_pos_as_xyz
    x,y,z
loop_
    _atom_site_label
    _atom_site_type_symbol
    _atom_site_fract_x
    _atom_site_fract_y
    _atom_site_fract_z
    _atom_site_occupancy
    N0      N    0.09651   0.57562   0.33675   1.000
    N1      N    0.99999   0.99998   0.49948   1.000
    N2      N    0.90348   0.42434   0.66325   1.000
    N3      N    0.40348   0.42434   0.66325   1.000
    N4      N    0.24999   0.49998   0.00000   1.000
    N5      N    0.74999   0.49998   0.00000   1.000
    N6      N    0.34666   0.92421   0.83660   1.000
    N7      N    0.84666   0.92421   0.83660   1.000
    N8      N    0.49999   0.99998   0.50000   1.000
    N9      N    0.59650   0.57562   0.33675   1.000
    N10     N    0.65332   0.07543   0.16340   1.000
    N11     N    0.15332   0.07542   0.16341   1.000
    Zr12    Zr   0.72279   0.70156   0.81274   1.000
    O13     O    0.63614   0.61918   0.77083   1.000
    O14     O    0.79821   0.78479   0.72446   1.000
    O15     O    0.61701   0.76511   0.82567   1.000
    O16     O    0.86584   0.64938   0.87089   1.000
    Zr17    Zr   0.77717   0.29840   0.18727   1.000
    O18     O    0.70177   0.21517   0.27542   1.000
    O19     O    0.88296   0.23478   0.17433   1.000
    O20     O    0.63414   0.35059   0.12912   1.000
    O21     O    0.86384   0.38079   0.22918   1.000
    Zr22    Zr   0.02722   0.20162   0.68730   1.000
    O23     O    0.88419   0.14941   0.62914   1.000
    O24     O    0.95175   0.28482   0.77544   1.000
    O25     O    0.13307   0.26517   0.67433   1.000
    O26     O    0.11390   0.11919   0.72918   1.000
    Zr27    Zr   0.52721   0.20162   0.68730   1.000
    O28     O    0.63306   0.26517   0.67433   1.000
    O29     O    0.38418   0.14941   0.62900   1.000
    O30     O    0.61389   0.11919   0.72918   1.000
    O31     O    0.45175   0.28482   0.77544   1.000
    Zr32    Zr   0.22281   0.70157   0.81274   1.000
    O33     O    0.36585   0.64938   0.87089   1.000
    O34     O    0.13615   0.61918   0.77083   1.000
    O35     O    0.11702   0.76511   0.82567   1.000
    O36     O    0.29821   0.78479   0.72459   1.000
    Zr37    Zr   0.47277   0.79835   0.31263   1.000
    O38     O    0.54823   0.71514   0.22452   1.000
    O39     O    0.38609   0.88070   0.27078   1.000
    O40     O    0.61580   0.85055   0.37069   1.000
    O41     O    0.36692   0.73480   0.32563   1.000
    Zr42    Zr   0.97276   0.79835   0.31263   1.000
    O43     O    0.88608   0.88070   0.27078   1.000
    O44     O    0.86691   0.73480   0.32563   1.000
    O45     O    0.04823   0.71514   0.22452   1.000
    O46     O    0.11580   0.85055   0.37082   1.000
    Zr47    Zr   0.27719   0.29840   0.18727   1.000
    O48     O    0.13415   0.35059   0.12912   1.000
    O49     O    0.20178   0.21517   0.27528   1.000
    O50     O    0.38297   0.23478   0.17433   1.000
    O51     O    0.36385   0.38079   0.22918   1.000
loop_
    _geom_bond_atom_site_label_1
    _geom_bond_atom_site_label_2
    _geom_bond_distance
    _geom_bond_site_symmetry_2
    _ccdc_geom_bond_type
    Zr12   O13       1.97164      .   S
    N3     O13       4.96227      .   S
    Zr12   O14       2.42620      .   S
    N1     O14       6.28642      .   S
    Zr12   O15       1.91141      .   S
    N6     O15       4.79261      .   S
    Zr12   O16       2.39922      .   S
    N4     O16       6.35921  1_454   S
    Zr17   O18       2.42462      .   S
    N8     O18       6.28173  1_565   S
    Zr17   O19       1.91226      .   S
    N11    O19       4.79509  1_455   S
    Zr17   O20       2.39917      .   S
    N4     O20       6.35909      .   S
    Zr17   O21       1.97165      .   S
    N0     O21       4.96232  1_455   S
    Zr22   O23       2.39860  1_455   S
    N8     O23       6.35779  1_565   S
    Zr22   O24       2.42531  1_455   S
    N5     O24       6.28254  1_554   S
    Zr22   O25       1.91149      .   S
    N3     O25       4.79221      .   S
    Zr22   O26       1.97304      .   S
    N6     O26       4.96627  1_565   S
    Zr27   O28       1.91150      .   S
    N2     O28       4.79227      .   S
    Zr27   O29       2.39930      .   S
    N1     O29       6.35957  1_665   S
    Zr27   O30       1.97305      .   S
    N7     O30       4.96632  1_565   S
    Zr27   O31       2.42526      .   S
    N4     O31       6.28249  1_554   S
    Zr32   O33       2.39918      .   S
    N5     O33       6.35909  1_554   S
    Zr32   O34       1.97168      .   S
    N2     O34       4.96240  1_655   S
    Zr32   O35       1.91146      .   S
    N7     O35       4.79276  1_655   S
    Zr32   O36       2.42460      .   S
    N8     O36       6.28171      .   S
    Zr37   O38       2.42492      .   S
    N5     O38       6.28198      .   S
    Zr37   O39       1.97191      .   S
    N11    O39       4.96331  1_545   S
    Zr37   O40       2.39790      .   S
    N1     O40       6.35609      .   S
    Zr37   O41       1.91162      .   S
    N0     O41       4.79240      .   S
    Zr42   O43       1.97190      .   S
    N10    O43       4.96327  1_545   S
    Zr42   O44       1.91160      .   S
    N9     O44       4.79234      .   S
    Zr42   O45       2.42497  1_655   S
    N4     O45       6.28204      .   S
    Zr42   O46       2.39877  1_655   S
    N8     O46       6.35799      .   S
    Zr47   O48       2.39922      .   S
    N5     O48       6.35922  1_655   S
    Zr47   O49       2.42308      .   S
    N1     O49       6.27717  1_665   S
    Zr47   O50       1.91222      .   S
    N10    O50       4.79495      .   S
    Zr47   O51       1.97161      .   S
    N9     O51       4.96219      .   S
