# CIF file generated by openbabel 2.4.90, see http://openbabel.sf.net
data_I
_chemical_name_common 'VESTA_phase_1'
_cell_length_a 13.254
_cell_length_b 13.186
_cell_length_c 13.156
_cell_angle_alpha 93.741
_cell_angle_beta 96.041
_cell_angle_gamma 83.687
_space_group_name_H-M_alt 'P 1'
_space_group_name_Hall 'P 1'
loop_
    _symmetry_equiv_pos_as_xyz
    x,y,z
loop_
    _atom_site_label
    _atom_site_type_symbol
    _atom_site_fract_x
    _atom_site_fract_y
    _atom_site_fract_z
    _atom_site_occupancy
    Zn0     Zn   0.16940   0.15982   0.72472   1.000
    Zn1     Zn   0.32513   0.72480   0.15899   1.000
    Zn2     Zn   0.82667   0.84049   0.27522   1.000
    Zn3     Zn   0.67124   0.27516   0.84001   1.000
    H4      H    0.39532   0.18434   0.73128   1.000
    H5      H    0.54185   0.11723   0.64042   1.000
    H6      H    0.33776   0.93660   0.44181   1.000
    H7      H    0.19972   0.01309   0.54080   1.000
    H8      H    0.97523   0.21696   0.58960   1.000
    H9      H    0.89889   0.35805   0.48368   1.000
    H10     H    0.15414   0.52449   0.60155   1.000
    H11     H    0.21998   0.37431   0.70294   1.000
    H12     H    0.06253   0.86278   0.70156   1.000
    H13     H    0.95956   0.71871   0.70180   1.000
    H14     H    0.69998   0.93153   0.76872   1.000
    H15     H    0.09950   0.73219   0.18143   1.000
    H16     H    0.95385   0.64044   0.11582   1.000
    H17     H    0.15968   0.44026   0.93666   1.000
    H18     H    0.29695   0.53992   0.01184   1.000
    H19     H    0.52164   0.59119   0.21595   1.000
    H20     H    0.59952   0.48632   0.35730   1.000
    H21     H    0.34126   0.59908   0.52365   1.000
    H22     H    0.27441   0.70004   0.37368   1.000
    H23     H    0.43677   0.70332   0.86167   1.000
    H24     H    0.54155   0.70162   0.71785   1.000
    H25     H    0.79852   0.77005   0.93194   1.000
    H26     H    0.60114   0.81628   0.26890   1.000
    H27     H    0.45478   0.88296   0.36034   1.000
    H28     H    0.65895   0.06362   0.55870   1.000
    H29     H    0.79694   0.98730   0.45946   1.000
    H30     H    0.02204   0.78267   0.40892   1.000
    H31     H    0.09902   0.64122   0.51405   1.000
    H32     H    0.84169   0.47635   0.39955   1.000
    H33     H    0.77577   0.62639   0.29819   1.000
    H34     H    0.93581   0.13778   0.30030   1.000
    H35     H    0.03927   0.28151   0.29936   1.000
    H36     H    0.29762   0.06784   0.23080   1.000
    H37     H    0.89723   0.26711   0.81798   1.000
    H38     H    0.04299   0.35845   0.88300   1.000
    H39     H    0.83742   0.55820   0.06380   1.000
    H40     H    0.70005   0.45891   0.98826   1.000
    H41     H    0.47493   0.40718   0.78190   1.000
    H42     H    0.39707   0.51176   0.64031   1.000
    H43     H    0.65782   0.40255   0.47619   1.000
    H44     H    0.72398   0.30072   0.62589   1.000
    H45     H    0.56164   0.29472   0.13674   1.000
    H46     H    0.45775   0.29580   0.28092   1.000
    H47     H    0.19946   0.22899   0.06782   1.000
    C48     C    0.38500   0.13120   0.66508   1.000
    C49     C    0.46795   0.09164   0.61335   1.000
    C50     C    0.45518   0.02078   0.52979   1.000
    C51     C    0.35620   0.99171   0.50442   1.000
    C52     C    0.27684   0.03457   0.55940   1.000
    C53     C    0.01319   0.28613   0.58884   1.000
    C54     C    0.97069   0.36678   0.53000   1.000
    C55     C    0.01968   0.45623   0.53094   1.000
    C56     C    0.11131   0.45817   0.59476   1.000
    C57     C    0.14999   0.37475   0.65120   1.000
    C58     C    0.01008   0.06045   0.73149   1.000
    C59     C    0.94034   0.97797   0.72928   1.000
    C60     C    0.98231   0.87676   0.71468   1.000
    C61     C    0.92386   0.79570   0.71624   1.000
    C62     C    0.82135   0.81395   0.73569   1.000
    C63     C    0.77930   0.91534   0.75259   1.000
    C64     C    0.83682   0.99754   0.74719   1.000
    C65     C    0.78332   0.10499   0.74930   1.000
    C66     C    0.81229   0.61943   0.73607   1.000
    C67     C    0.11044   0.66545   0.12890   1.000
    C68     C    0.02799   0.61326   0.09023   1.000
    C69     C    0.04147   0.52902   0.02023   1.000
    C70     C    0.14073   0.50348   0.99109   1.000
    C71     C    0.21961   0.55886   0.03321   1.000
    C72     C    0.48340   0.58960   0.28517   1.000
    C73     C    0.52678   0.53130   0.36600   1.000
    C74     C    0.47744   0.53106   0.45555   1.000
    C75     C    0.38457   0.59327   0.45730   1.000
    C76     C    0.34515   0.64927   0.37380   1.000
    C77     C    0.48724   0.73469   0.06048   1.000
    C78     C    0.55760   0.73161   0.97764   1.000
    C79     C    0.51689   0.71627   0.87608   1.000
    C80     C    0.57635   0.71669   0.79506   1.000
    C81     C    0.67867   0.73607   0.81364   1.000
    C82     C    0.71940   0.75390   0.91535   1.000
    C83     C    0.66105   0.74927   0.99746   1.000
    C84     C    0.71435   0.75126   0.10495   1.000
    C85     C    0.69185   0.73240   0.61850   1.000
    C86     C    0.61154   0.86927   0.33524   1.000
    C87     C    0.52869   0.90863   0.38722   1.000
    C88     C    0.54153   0.97943   0.47083   1.000
    C89     C    0.64052   0.00000   0.49607   1.000
    C90     C    0.71981   0.96582   0.44090   1.000
    C91     C    0.98384   0.71371   0.41014   1.000
    C92     C    0.02666   0.63289   0.46860   1.000
    C93     C    0.97728   0.54376   0.46838   1.000
    C94     C    0.88501   0.54228   0.40555   1.000
    C95     C    0.84616   0.62578   0.34932   1.000
    C96     C    0.98761   0.93957   0.26909   1.000
    C97     C    0.05737   0.02218   0.27175   1.000
    C98     C    0.01590   0.12352   0.28676   1.000
    C99     C    0.07458   0.20440   0.28475   1.000
    C100    C    0.17685   0.18581   0.26450   1.000
    C101    C    0.21845   0.08430   0.24750   1.000
    C102    C    0.16074   0.00234   0.25328   1.000
    C103    C    0.21431   0.89495   0.25066   1.000
    C104    C    0.18737   0.38032   0.26379   1.000
    C105    C    0.88637   0.33366   0.87067   1.000
    C106    C    0.96890   0.38565   0.90959   1.000
    C107    C    0.95553   0.46971   0.97982   1.000
    C108    C    0.85634   0.49519   0.00000   1.000
    C109    C    0.77738   0.44001   0.96683   1.000
    C110    C    0.51354   0.40927   0.71300   1.000
    C111    C    0.47033   0.46759   0.63215   1.000
    C112    C    0.52041   0.46874   0.54318   1.000
    C113    C    0.61381   0.40735   0.54194   1.000
    C114    C    0.65290   0.35102   0.62530   1.000
    C115    C    0.51001   0.26467   0.93802   1.000
    C116    C    0.44011   0.26730   0.02115   1.000
    C117    C    0.48145   0.28198   0.12256   1.000
    C118    C    0.42240   0.28126   0.20385   1.000
    C119    C    0.31986   0.26251   0.18571   1.000
    C120    C    0.27867   0.24489   0.08416   1.000
    C121    C    0.33668   0.24961   0.00186   1.000
    C122    C    0.28330   0.24796   0.89453   1.000
    C123    C    0.30745   0.26697   0.38050   1.000
    C124    C    0.75080   0.72749   0.72792   1.000
    C125    C    0.24797   0.27171   0.27165   1.000
    N126    N    0.29013   0.10413   0.63848   1.000
    N127    N    0.10225   0.28913   0.64853   1.000
    N128    N    0.20559   0.63857   0.10203   1.000
    N129    N    0.39318   0.64775   0.28805   1.000
    N130    N    0.70641   0.89640   0.36173   1.000
    N131    N    0.89422   0.71112   0.35133   1.000
    N132    N    0.79125   0.36054   0.89770   1.000
    N133    N    0.60414   0.35174   0.71056   1.000
    O134    O    0.99492   0.14242   0.78397   1.000
    O135    O    0.08896   0.04038   0.67999   1.000
    O136    O    0.78223   0.15534   0.67154   1.000
    O137    O    0.73822   0.13421   0.83020   1.000
    O138    O    0.50260   0.78686   0.14245   1.000
    O139    O    0.40824   0.68375   0.04040   1.000
    O140    O    0.71505   0.67381   0.15553   1.000
    O141    O    0.76027   0.83125   0.13300   1.000
    O142    O    0.00430   0.85733   0.21752   1.000
    O143    O    0.90770   0.95962   0.31919   1.000
    O144    O    0.21734   0.84486   0.32887   1.000
    O145    O    0.25786   0.86557   0.16891   1.000
    O146    O    0.49717   0.20909   0.85792   1.000
    O147    O    0.58624   0.31971   0.95607   1.000
    O148    O    0.28469   0.32474   0.84348   1.000
    O149    O    0.23547   0.16910   0.86614   1.000
    F150    F    0.88401   0.61785   0.81770   1.000
    F151    F    0.86235   0.58726   0.65215   1.000
    F152    F    0.75062   0.54624   0.74711   1.000
    F153    F    0.61865   0.81300   0.61350   1.000
    F154    F    0.64433   0.64707   0.58730   1.000
    F155    F    0.75563   0.74254   0.54643   1.000
    F156    F    0.11569   0.38217   0.18210   1.000
    F157    F    0.13757   0.41267   0.34785   1.000
    F158    F    0.24930   0.45339   0.25285   1.000
    F159    F    0.38032   0.18633   0.38623   1.000
    F160    F    0.35565   0.35229   0.40907   1.000
    F161    F    0.24440   0.25776   0.45352   1.000
loop_
    _geom_bond_atom_site_label_1
    _geom_bond_atom_site_label_2
    _geom_bond_distance
    _geom_bond_site_symmetry_2
    _ccdc_geom_bond_type
    C108   H39       1.16841      .   S
    C108   C109      1.35835  1_554   S
    C108   C107      1.36987  1_554   S
    C121   C116      1.40972      .   S
    C121   C120      1.40067      .   S
    C121   C122      1.51130  1_554   S
    H18    C71       1.08970      .   S
    C69    C68       1.40412      .   S
    C69    C107      1.48518  1_454   S
    C69    C70       1.40814  1_554   S
    C116   C117      1.39765      .   S
    C116   C115      1.50228  1_554   S
    C71    N128      1.35171      .   S
    C71    C70       1.38798  1_554   S
    O139   C77       1.30032      .   S
    O139   Zn1       2.01517      .   S
    C77    O138      1.25114      .   S
    C77    C78       1.50296  1_554   S
    H47    C120      1.08971      .   S
    C120   C119      1.40386      .   S
    C68    H16       1.08800  1_455   S
    C68    C67       1.38889      .   S
    N128   C67       1.34920      .   S
    N128   Zn1       2.09750      .   S
    C84    O141      1.28923      .   S
    C84    O140      1.25345      .   S
    C84    C83       1.51277  1_554   S
    C117   H45       1.08907      .   S
    C117   C118      1.39118      .   S
    C67    H15       1.08944      .   S
    O141   Zn2       1.98430      .   S
    Zn1    O145      1.97142      .   S
    Zn1    N129      2.10475      .   S
    O145   C103      1.29118      .   S
    F156   C104      1.35704      .   S
    C119   C118      1.40109      .   S
    C119   C125      1.54415      .   S
    C118   H46       1.08570      .   S
    H19    C72       1.09023      .   S
    O142   C96       1.25226  1_455   S
    H36    C101      1.09016      .   S
    C101   C102      1.40125      .   S
    C101   C100      1.40367      .   S
    C103   C102      1.51268  1_565   S
    C103   O144      1.25328      .   S
    F158   C104      1.35633      .   S
    C102   C97       1.40987      .   S
    C104   C125      1.56707      .   S
    C104   F157      1.36774      .   S
    C100   C125      1.54360      .   S
    C100   C99       1.40100      .   S
    H26    C86       1.08866      .   S
    C96    C97       1.50075  1_665   S
    C96    O143      1.29948      .   S
    C125   C123      1.56183      .   S
    C97    C98       1.39769      .   S
    Zn2    O143      2.01933      .   S
    Zn2    N131      2.10053      .   S
    Zn2    N130      2.09600      .   S
    C99    C98       1.39038      .   S
    C99    H35       1.08570      .   S
    C72    N129      1.35032      .   S
    C72    C73       1.39034      .   S
    C98    H34       1.08881  1_455   S
    N129   C76       1.35047      .   S
    H33    C95       1.09076      .   S
    C86    N130      1.34947      .   S
    C86    C87       1.38892      .   S
    C95    N131      1.35026      .   S
    C95    C94       1.38778      .   S
    N131   C91       1.35014      .   S
    H20    C73       1.08771      .   S
    H27    C87       1.08796      .   S
    N130   C90       1.35157      .   S
    C73    C74       1.40666      .   S
    H22    C76       1.09045      .   S
    C76    C75       1.38750      .   S
    C123   F159      1.35593      .   S
    C123   F160      1.36645      .   S
    C123   F161      1.35734      .   S
    C87    C88       1.40424      .   S
    H32    C94       1.08778      .   S
    C94    C93       1.40341      .   S
    H30    C91       1.09006  1_455   S
    C91    C92       1.38971  1_655   S
    C90    H29       1.08952      .   S
    C90    C89       1.35943  1_565   S
    H6     C51       1.08848      .   S
    C74    C75       1.40351      .   S
    C74    C112      1.48700      .   S
    C75    H21       1.08829      .   S
    C93    C92       1.40640  1_655   S
    C93    C55       1.48637  1_655   S
    C92    H31       1.08776      .   S
    C88    C89       1.37109  1_565   S
    C88    C50       1.48436  1_565   S
    H43    C113      1.08786      .   S
    H9     C54       1.08769      .   S
    C89    H28       1.16401      .   S
    C51    C50       1.40763  1_565   S
    C51    C52       1.38746  1_565   S
    C50    C49       1.40416      .   S
    C54    C55       1.40640  1_655   S
    C54    C53       1.38969  1_655   S
    C55    C56       1.40347      .   S
    H7     C52       1.08943      .   S
    C113   C112      1.40368      .   S
    C113   C114      1.38740      .   S
    C112   C111      1.40672      .   S
    F155   C85       1.35703      .   S
    C52    N126      1.35172      .   S
    F154   C85       1.36838      .   S
    C53    H8        1.09019  1_455   S
    C53    N127      1.35008      .   S
    C56    H10       1.08784      .   S
    C56    C57       1.38798      .   S
    C49    H5        1.08793      .   S
    C49    C48       1.38893      .   S
    F153   C85       1.35797      .   S
    C85    C124      1.56565      .   S
    C114   H44       1.09055      .   S
    C114   N133      1.35118      .   S
    C111   H42       1.08767      .   S
    C111   C110      1.39010      .   S
    N126   C48       1.34932      .   S
    N126   Zn0       2.09806      .   S
    N127   C57       1.35033      .   S
    N127   Zn0       2.09902      .   S
    C57    H11       1.09106      .   S
    F151   C66       1.36755      .   S
    C48    H4        1.08845      .   S
    O136   C65       1.25335      .   S
    O135   Zn0       2.01984      .   S
    O135   C58       1.29883      .   S
    H12    C60       1.08894  1_455   S
    H13    C61       1.08566      .   S
    N133   C110      1.35020      .   S
    N133   Zn3       2.10220      .   S
    C110   H41       1.09009      .   S
    C60    C61       1.38967      .   S
    C60    C59       1.39757      .   S
    C61    C62       1.40090      .   S
    H24    C80       1.08596      .   S
    Zn0    O149      1.97339      .   S
    C124   C62       1.54387      .   S
    C124   C66       1.56593      .   S
    C124   C81       1.54439      .   S
    C59    C58       1.49970  1_665   S
    C59    C64       1.40957      .   S
    C58    O134      1.25276  1_455   S
    C62    C63       1.40394      .   S
    C66    F152      1.35536      .   S
    C66    F150      1.35684      .   S
    C64    C65       1.51298  1_565   S
    C64    C63       1.40152      .   S
    C65    O137      1.29158      .   S
    C63    H14       1.08985      .   S
    C80    C81       1.40086      .   S
    C80    C79       1.39138      .   S
    C81    C82       1.40426      .   S
    H37    C105      1.08871      .   S
    O137   Zn3       1.97199      .   S
    Zn3    N132      2.09812      .   S
    Zn3    O147      2.01128      .   S
    O148   C122      1.25374      .   S
    O146   C115      1.25118      .   S
    H23    C79       1.08902      .   S
    O149   C122      1.29117      .   S
    C105   N132      1.34950      .   S
    C105   C106      1.38917      .   S
    C79    C78       1.39796      .   S
    H38    C106      1.09256  1_455   S
    N132   C109      1.35179      .   S
    C106   C107      1.40409      .   S
    C82    H25       1.08975      .   S
    C82    C83       1.40126      .   S
    H17    C70       1.08846      .   S
    C115   O147      1.30084      .   S
    C109   H40       1.08965      .   S
    C78    C83       1.41037      .   S
