# CIF file generated by openbabel 2.4.90, see http://openbabel.sf.net
data_I
_chemical_name_common ''
_cell_length_a 9.6555
_cell_length_b 14.871
_cell_length_c 15.415
_cell_angle_alpha 89.996
_cell_angle_beta 89.972
_cell_angle_gamma 89.963
_space_group_name_H-M_alt 'P 1'
_space_group_name_Hall 'P 1'
loop_
    _symmetry_equiv_pos_as_xyz
    x,y,z
loop_
    _atom_site_label
    _atom_site_type_symbol
    _atom_site_fract_x
    _atom_site_fract_y
    _atom_site_fract_z
    _atom_site_occupancy
    H0      H    0.70193   0.69670   0.42918   1.000
    H1      H    0.79796   0.90547   0.21440   1.000
    H2      H    0.92488   0.67911   0.49034   1.000
    H3      H    0.02913   0.81718   0.54972   1.000
    H4      H    0.57583   0.96911   0.19224   1.000
    H5      H    0.47553   0.04508   0.32055   1.000
    H6      H    0.70203   0.30358   0.56889   1.000
    H7      H    0.79808   0.09392   0.78431   1.000
    H8      H    0.92434   0.32097   0.50700   1.000
    H9      H    0.02849   0.18281   0.44736   1.000
    H10     H    0.57569   0.03052   0.80597   1.000
    H11     H    0.47593   0.95525   0.67741   1.000
    H12     H    0.29767   0.80317   0.92894   1.000
    H13     H    0.20174   0.59469   0.71454   1.000
    H14     H    0.07489   0.82094   0.99038   1.000
    H15     H    0.97042   0.68305   0.04999   1.000
    H16     H    0.42369   0.53100   0.69220   1.000
    H17     H    0.52408   0.45497   0.82044   1.000
    H18     H    0.29771   0.19651   0.06897   1.000
    H19     H    0.20146   0.40603   0.28441   1.000
    H20     H    0.07542   0.17908   0.00717   1.000
    H21     H    0.97146   0.31722   0.94739   1.000
    H22     H    0.42385   0.46944   0.30588   1.000
    H23     H    0.52349   0.54476   0.17724   1.000
    C24     C    0.79333   0.73626   0.59063   1.000
    C25     C    0.86064   0.73914   0.50057   1.000
    C26     C    0.95366   0.82372   0.49623   1.000
    C27     C    0.04062   0.82156   0.41199   1.000
    C28     C    0.70968   0.07647   0.23776   1.000
    C29     C    0.64061   0.98436   0.24888   1.000
    C30     C    0.54784   0.98844   0.33077   1.000
    C31     C    0.45583   0.90335   0.33511   1.000
    C32     C    0.79293   0.26376   0.40683   1.000
    C33     C    0.86019   0.26093   0.49693   1.000
    C34     C    0.95335   0.17633   0.50109   1.000
    C35     C    0.04085   0.17841   0.58505   1.000
    C36     C    0.70986   0.92345   0.75997   1.000
    C37     C    0.64071   0.01561   0.74929   1.000
    C38     C    0.54816   0.01192   0.66737   1.000
    C39     C    0.45592   0.09696   0.66324   1.000
    C40     C    0.20644   0.76375   0.09057   1.000
    C41     C    0.13903   0.76086   0.00057   1.000
    C42     C    0.04586   0.67633   0.99646   1.000
    C43     C    0.95881   0.67837   0.91228   1.000
    C44     C    0.28996   0.42358   0.73782   1.000
    C45     C    0.35897   0.51570   0.74889   1.000
    C46     C    0.45180   0.51161   0.83069   1.000
    C47     C    0.54385   0.59668   0.83497   1.000
    C48     C    0.20692   0.23627   0.90698   1.000
    C49     C    0.13957   0.23911   0.99710   1.000
    C50     C    0.04643   0.32372   0.00114   1.000
    C51     C    0.95853   0.32171   0.08501   1.000
    C52     C    0.28969   0.57652   0.25999   1.000
    C53     C    0.35878   0.48437   0.24927   1.000
    C54     C    0.45127   0.48809   0.16727   1.000
    C55     C    0.54351   0.40305   0.16315   1.000
    O56     O    0.67244   0.76953   0.60068   1.000
    O57     O    0.86638   0.70365   0.65126   1.000
    O58     O    0.76066   0.74993   0.43198   1.000
    O59     O    0.87321   0.90244   0.50502   1.000
    O60     O    0.04043   0.88792   0.35968   1.000
    O61     O    0.11346   0.75163   0.40053   1.000
    O62     O    0.83032   0.08957   0.26954   1.000
    O63     O    0.63882   0.13654   0.20012   1.000
    O64     O    0.73912   0.91357   0.26525   1.000
    O65     O    0.62937   0.00137   0.40554   1.000
    O66     O    0.45662   0.85235   0.40145   1.000
    O67     O    0.37911   0.89083   0.26953   1.000
    O68     O    0.67224   0.23041   0.39653   1.000
    O69     O    0.86623   0.29632   0.34629   1.000
    O70     O    0.76052   0.25019   0.56583   1.000
    O71     O    0.87279   0.09771   0.49257   1.000
    O72     O    0.04092   0.11199   0.63730   1.000
    O73     O    0.11379   0.24825   0.59637   1.000
    O74     O    0.83102   0.91063   0.72877   1.000
    O75     O    0.63845   0.86312   0.79673   1.000
    O76     O    0.73923   0.08642   0.73342   1.000
    O77     O    0.62983   0.99919   0.59255   1.000
    O78     O    0.45611   0.14784   0.59678   1.000
    O79     O    0.37949   0.10950   0.72903   1.000
    O80     O    0.32734   0.73049   0.10054   1.000
    O81     O    0.13346   0.79641   0.15124   1.000
    O82     O    0.23890   0.74996   0.93190   1.000
    O83     O    0.12622   0.59760   0.00000   1.000
    O84     O    0.95853   0.61176   0.86026   1.000
    O85     O    0.88636   0.74843   0.90058   1.000
    O86     O    0.16933   0.41045   0.76968   1.000
    O87     O    0.36088   0.36352   0.70016   1.000
    O88     O    0.26042   0.58646   0.76540   1.000
    O89     O    0.37028   0.49870   0.90553   1.000
    O90     O    0.54302   0.64769   0.90128   1.000
    O91     O    0.62063   0.60917   0.76936   1.000
    O92     O    0.32763   0.26959   0.89659   1.000
    O93     O    0.13361   0.20369   0.84650   1.000
    O94     O    0.23917   0.24988   0.06595   1.000
    O95     O    0.12702   0.40233   0.99265   1.000
    O96     O    0.95810   0.38818   0.13720   1.000
    O97     O    0.88562   0.25185   0.09631   1.000
    O98     O    0.16849   0.58936   0.22896   1.000
    O99     O    0.36126   0.63683   0.29662   1.000
    O100    O    0.26029   0.41354   0.23347   1.000
    O101    O    0.36954   0.50079   0.09252   1.000
    O102    O    0.54360   0.35223   0.09666   1.000
    O103    O    0.61968   0.39047   0.22900   1.000
loop_
    _geom_bond_atom_site_label_1
    _geom_bond_atom_site_label_2
    _geom_bond_distance
    _geom_bond_site_symmetry_2
    _ccdc_geom_bond_type
    O83    C42       1.40526  1_554   S
    C41    C40       1.53333      .   S
    C41    O82       1.44058  1_554   S
    C41    H14       1.09810  1_554   S
    C41    C42       1.54760  1_554   S
    C50    C51       1.54636  1_455   S
    C50    H21       1.10480  1_454   S
    C50    O95       1.41082  1_554   S
    C50    C49       1.54736  1_554   S
    H20    C49       1.09792  1_554   S
    H15    C42       1.10477  1_654   S
    O94    H18       0.97515      .   S
    O94    C49       1.44153  1_554   S
    C51    O97       1.26731      .   S
    C51    O96       1.27453      .   S
    C40    O80       1.27687      .   S
    C40    O81       1.26729      .   S
    O101   C54       1.40958      .   S
    O102   C55       1.27348      .   S
    C55    C54       1.54758      .   S
    C55    O103      1.26757      .   S
    C54    H23       1.10490      .   S
    C54    C53       1.54827      .   S
    H4     C29       1.09799      .   S
    O63    C28       1.26583      .   S
    H1     O64       0.97533      .   S
    O98    C52       1.27876      .   S
    O100   C53       1.44032      .   S
    O100   H19       0.97535      .   S
    C28    C29       1.53344  1_545   S
    C28    O62       1.27888      .   S
    C29    O64       1.44075      .   S
    C29    C30       1.54872      .   S
    C53    C52       1.53265      .   S
    C53    H22       1.09807      .   S
    C52    O99       1.26573      .   S
    O67    C31       1.26744      .   S
    H5     C30       1.10504  1_545   S
    C30    C31       1.54806      .   S
    C30    O65       1.40937  1_565   S
    C31    O66       1.27301      .   S
    O69    C32       1.26726      .   S
    O60    C27       1.27439      .   S
    O68    C32       1.27680      .   S
    O61    C27       1.26740      .   S
    C32    C33       1.53408      .   S
    C27    C26       1.54643  1_455   S
    H0     O58       0.97508      .   S
    O58    C25       1.44090      .   S
    H9     C34       1.10504  1_455   S
    H2     C25       1.09807      .   S
    O71    C34       1.41090      .   S
    C26    C25       1.54749      .   S
    C26    O59       1.41090      .   S
    C26    H3        1.10492  1_655   S
    C33    C34       1.54740      .   S
    C33    H8        1.09805      .   S
    C33    O70       1.44180      .   S
    C25    C24       1.53321      .   S
    C34    C35       1.54634  1_655   S
    O70    H6        0.97515      .   S
    C35    O73       1.26740      .   S
    C35    O72       1.27437      .   S
    C24    O56       1.27682      .   S
    C24    O57       1.26735      .   S
    O77    C38       1.40962  1_565   S
    O78    C39       1.27356      .   S
    C39    C38       1.54767      .   S
    C39    O79       1.26758      .   S
    C38    H11       1.10509  1_545   S
    C38    C37       1.54836      .   S
    H16    C45       1.09799      .   S
    O87    C44       1.26593      .   S
    H13    O88       0.97533      .   S
    O74    C36       1.27876      .   S
    O76    C37       1.44029      .   S
    O76    H7        0.97534      .   S
    C44    C45       1.53332      .   S
    C44    O86       1.27887      .   S
    C45    O88       1.44081      .   S
    C45    C46       1.54859      .   S
    C37    C36       1.53302  1_545   S
    C37    H10       1.09809      .   S
    C36    O75       1.26565      .   S
    O91    C47       1.26742      .   S
    H17    C46       1.10485      .   S
    C46    C47       1.54794      .   S
    C46    O89       1.40939      .   S
    C47    O90       1.27301      .   S
    O93    C48       1.26720      .   S
    O84    C43       1.27456      .   S
    O92    C48       1.27680      .   S
    O85    C43       1.26742      .   S
    C48    C49       1.53417      .   S
    C43    C42       1.54669  1_655   S
    H12    O82       0.97507      .   S
