# CIF file generated by openbabel 2.4.90, see http://openbabel.sf.net
data_I
_chemical_name_common ''
_cell_length_a 9.6555
_cell_length_b 14.871
_cell_length_c 15.415
_cell_angle_alpha 89.996
_cell_angle_beta 89.972
_cell_angle_gamma 89.963
_space_group_name_H-M_alt 'P 1'
_space_group_name_Hall 'P 1'
loop_
    _symmetry_equiv_pos_as_xyz
    x,y,z
loop_
    _atom_site_label
    _atom_site_type_symbol
    _atom_site_fract_x
    _atom_site_fract_y
    _atom_site_fract_z
    _atom_site_occupancy
    N0      N    0.89467   0.77529   0.49368   1.000
    N1      N    0.89451   0.22474   0.50370   1.000
    N2      N    0.39374   0.51879   0.78392   1.000
    N3      N    0.60590   0.98127   0.28393   1.000
    N4      N    0.60604   0.01880   0.71422   1.000
    N5      N    0.10517   0.27532   0.00377   1.000
    N6      N    0.10492   0.72470   0.99336   1.000
    N7      N    0.39346   0.48119   0.21419   1.000
    Zr8     Zr   0.87623   0.00676   0.61588   1.000
    O9      O    0.88046   0.93585   0.57147   1.000
    Zr10    Zr   0.87621   0.99346   0.38199   1.000
    O11     O    0.88036   0.06431   0.42624   1.000
    Zr12    Zr   0.62563   0.87824   0.49906   1.000
    O13     O    0.62126   0.92849   0.56454   1.000
    Zr14    Zr   0.12318   0.49324   0.11606   1.000
    O15     O    0.11900   0.56415   0.07088   1.000
    Zr16    Zr   0.75664   0.73127   0.77957   1.000
    O17     O    0.85992   0.73178   0.84814   1.000
    O18     O    0.64891   0.66289   0.77938   1.000
    O19     O    0.70422   0.81964   0.76538   1.000
    O20     O    0.80487   0.73882   0.69206   1.000
    Zr21    Zr   0.24290   0.23155   0.71788   1.000
    O22     O    0.19481   0.23901   0.80543   1.000
    O23     O    0.13966   0.23194   0.64915   1.000
    O24     O    0.29536   0.31986   0.73218   1.000
    O25     O    0.35076   0.16311   0.71836   1.000
    Zr26    Zr   0.12337   0.50657   0.88221   1.000
    O27     O    0.11927   0.43573   0.92641   1.000
    Zr28    Zr   0.37396   0.62174   0.99899   1.000
    O29     O    0.37828   0.57148   0.06448   1.000
    Zr30    Zr   0.24317   0.76869   0.27945   1.000
    O31     O    0.13983   0.76821   0.34814   1.000
    O32     O    0.29550   0.68033   0.26528   1.000
    O33     O    0.35084   0.83710   0.27933   1.000
    O34     O    0.19489   0.76116   0.19190   1.000
    Zr35    Zr   0.75651   0.26856   0.21787   1.000
    O36     O    0.64864   0.33696   0.21834   1.000
    O37     O    0.70414   0.18024   0.23217   1.000
    O38     O    0.80472   0.26108   0.30538   1.000
    O39     O    0.85981   0.26816   0.14915   1.000
    Zr40    Zr   0.37459   0.37777   0.99884   1.000
    O41     O    0.37884   0.42814   0.93344   1.000
    Zr42    Zr   0.62512   0.12228   0.49885   1.000
    O43     O    0.62085   0.07191   0.43346   1.000
    O44     O    0.38924   0.58993   0.93327   1.000
    O45     O    0.10860   0.42651   0.08159   1.000
    O46     O    0.89088   0.07352   0.58146   1.000
    O47     O    0.89090   0.92663   0.41621   1.000
    O48     O    0.28554   0.65337   0.99872   1.000
    O49     O    0.10863   0.57337   0.91599   1.000
    O50     O    0.61037   0.91007   0.43333   1.000
    O51     O    0.38955   0.40972   0.06464   1.000
    O52     O    0.20868   0.51137   0.84755   1.000
    O53     O    0.20557   0.49398   0.15058   1.000
    O54     O    0.79377   0.99417   0.34754   1.000
    O55     O    0.71365   0.15374   0.49857   1.000
    O56     O    0.61008   0.09031   0.56467   1.000
    O57     O    0.79101   0.01151   0.65061   1.000
    O58     O    0.70777   0.84245   0.50216   1.000
    O59     O    0.28606   0.34631   0.99858   1.000
loop_
    _geom_bond_atom_site_label_1
    _geom_bond_atom_site_label_2
    _geom_bond_distance
    _geom_bond_site_symmetry_2
    _ccdc_geom_bond_type
    Zr8    O9        1.25783  1_545   S
    N0     O9        2.67540      .   S
    Zr10   O11       1.25584  1_565   S
    N1     O11       2.67152      .   S
    Zr12   O13       1.25662      .   S
    N4     O13       2.67368  1_545   S
    Zr14   O15       1.26433      .   S
    N6     O15       2.67318  1_556   S
    Zr16   O17       1.45364      .   S
    N6     O17       3.25926  1_455   S
    Zr16   O18       1.45517      .   S
    N2     O18       3.26714      .   S
    Zr16   O19       1.42476      .   S
    N4     O19       3.20765  1_545   S
    Zr16   O20       1.43130      .   S
    N0     O20       3.22414      .   S
    Zr21   O22       1.43129      .   S
    N5     O22       3.22256  1_554   S
    Zr21   O23       1.45512      .   S
    N1     O23       3.26300  1_655   S
    Zr21   O24       1.42497      .   S
    N2     O24       3.20854      .   S
    Zr21   O25       1.45577      .   S
    N4     O25       3.26773      .   S
    Zr26   O27       1.25517      .   S
    N5     O27       2.67039  1_554   S
    Zr28   O29       1.25671  1_556   S
    N7     O29       2.67386      .   S
    Zr30   O31       1.45458      .   S
    N0     O31       3.26218  1_655   S
    Zr30   O32       1.42428      .   S
    N7     O32       3.20640      .   S
    Zr30   O33       1.45508      .   S
    N3     O33       3.26698      .   S
    Zr30   O34       1.43243      .   S
    N6     O34       3.22781  1_556   S
    Zr35   O36       1.45532      .   S
    N7     O36       3.26634      .   S
    Zr35   O37       1.42484      .   S
    N3     O37       3.20841  1_565   S
    Zr35   O38       1.43154      .   S
    N1     O38       3.22349      .   S
    Zr35   O39       1.45468      .   S
    N5     O39       3.26208  1_455   S
    Zr40   O41       1.25650      .   S
    N2     O41       2.67391      .   S
    Zr42   O43       1.25659      .   S
    N3     O43       2.67424  1_565   S
    Zr28   O44       1.12760      .   S
    N2     O44       2.53416      .   S
    N5     O45       2.54879      .   S
    Zr14   O45       1.13452      .   S
    Zr8    O46       1.13447      .   S
    N1     O46       2.54866      .   S
    Zr10   O47       1.13393      .   S
    N0     O47       2.54801      .   S
    N6     O48       2.04236      .   S
    Zr28   O48       0.97458      .   S
    N6     O49       2.54731      .   S
    Zr26   O49       1.13042      .   S
    Zr12   O50       1.12802      .   S
    N3     O50       2.53504      .   S
    N7     O51       2.53883      .   S
    Zr40   O51       1.12957  1_556   S
    N2     O52       2.04101      .   S
    Zr26   O52       0.98425      .   S
    Zr14   O53       0.95733      .   S
    N7     O53       2.07124      .   S
    N3     O54       2.07145      .   S
    Zr10   O54       0.95724      .   S
    Zr42   O55       0.97472      .   S
    N1     O55       2.04290      .   S
    Zr42   O56       1.12973      .   S
    N4     O56       2.53899      .   S
    N4     O57       2.03986      .   S
    Zr8    O57       0.98400      .   S
    N0     O58       2.06610      .   S
    Zr12   O58       0.95604      .   S
    Zr40   O59       0.97466      .   S
    N5     O59       2.04301  1_554   S
