# CIF file generated by openbabel 2.4.90, see http://openbabel.sf.net
data_I
_chemical_name_common ''
_cell_length_a 9.6555
_cell_length_b 14.871
_cell_length_c 15.415
_cell_angle_alpha 89.996
_cell_angle_beta 89.972
_cell_angle_gamma 89.963
_space_group_name_H-M_alt 'P 1'
_space_group_name_Hall 'P 1'
loop_
    _symmetry_equiv_pos_as_xyz
    x,y,z
loop_
    _atom_site_label
    _atom_site_type_symbol
    _atom_site_fract_x
    _atom_site_fract_y
    _atom_site_fract_z
    _atom_site_occupancy
    Zr0     Zr   0.62563   0.87824   0.49906   1.000
    Zr1     Zr   0.87621   0.99346   0.38199   1.000
    Zr2     Zr   0.75664   0.73127   0.77957   1.000
    Zr3     Zr   0.62512   0.12228   0.49885   1.000
    Zr4     Zr   0.87623   0.00676   0.61588   1.000
    Zr5     Zr   0.75651   0.26856   0.21787   1.000
    Zr6     Zr   0.37396   0.62174   0.99899   1.000
    Zr7     Zr   0.12337   0.50657   0.88221   1.000
    Zr8     Zr   0.24317   0.76869   0.27945   1.000
    Zr9     Zr   0.37459   0.37777   0.99884   1.000
    Zr10    Zr   0.12318   0.49324   0.11606   1.000
    Zr11    Zr   0.24290   0.23155   0.71788   1.000
    N12     N    0.89467   0.77529   0.49368   1.000
    O13     O    0.92650   0.85799   0.43226   1.000
    O14     O    0.03649   0.76772   0.41683   1.000
    O15     O    0.85309   0.74637   0.60455   1.000
    O16     O    0.79391   0.79469   0.47960   1.000
    O17     O    0.88470   0.86494   0.52706   1.000
    O18     O    0.82205   0.83281   0.49786   1.000
    O19     O    0.88469   0.86162   0.46859   1.000
    O20     O    0.77186   0.79958   0.52178   1.000
    N21     N    0.89451   0.22474   0.50370   1.000
    O22     O    0.92654   0.14206   0.56514   1.000
    O23     O    0.03643   0.23232   0.58041   1.000
    O24     O    0.77160   0.20054   0.47569   1.000
    O25     O    0.85294   0.25359   0.39289   1.000
    O26     O    0.79367   0.20549   0.51802   1.000
    O27     O    0.88451   0.13516   0.47049   1.000
    O28     O    0.82173   0.16737   0.49971   1.000
    O29     O    0.88451   0.13849   0.52896   1.000
    N30     N    0.39374   0.51879   0.78392   1.000
    O31     O    0.27005   0.48865   0.80493   1.000
    O32     O    0.29282   0.53265   0.80387   1.000
    O33     O    0.38309   0.47851   0.86805   1.000
    O34     O    0.38293   0.53950   0.86809   1.000
    O35     O    0.32028   0.51071   0.83890   1.000
    O36     O    0.42612   0.57675   0.86703   1.000
    O37     O    0.54119   0.59450   0.77919   1.000
    O38     O    0.34782   0.40816   0.74647   1.000
    N39     N    0.60590   0.98127   0.28393   1.000
    O40     O    0.72958   0.01139   0.30485   1.000
    O41     O    0.65178   0.09191   0.24647   1.000
    O42     O    0.70678   0.96739   0.30378   1.000
    O43     O    0.61657   0.02155   0.36807   1.000
    O44     O    0.61670   0.96054   0.36812   1.000
    O45     O    0.67934   0.98934   0.33885   1.000
    O46     O    0.57351   0.92328   0.36709   1.000
    O47     O    0.45852   0.90551   0.27921   1.000
    N48     N    0.60604   0.01880   0.71422   1.000
    O49     O    0.72983   0.98874   0.69327   1.000
    O50     O    0.65179   0.90800   0.75118   1.000
    O51     O    0.45862   0.09466   0.71884   1.000
    O52     O    0.70688   0.03269   0.69443   1.000
    O53     O    0.61688   0.97875   0.63001   1.000
    O54     O    0.61676   0.03976   0.62996   1.000
    O55     O    0.67954   0.01088   0.65921   1.000
    O56     O    0.57333   0.07693   0.63102   1.000
    N57     N    0.10517   0.27532   0.00377   1.000
    O58     O    0.07290   0.35801   0.06520   1.000
    O59     O    0.96312   0.26776   0.08043   1.000
    O60     O    0.22814   0.29950   0.97574   1.000
    O61     O    0.14671   0.24647   0.89298   1.000
    O62     O    0.20602   0.29457   0.01808   1.000
    O63     O    0.11518   0.36489   0.97060   1.000
    O64     O    0.17799   0.33268   0.99976   1.000
    O65     O    0.11514   0.36155   0.02906   1.000
    N66     N    0.10492   0.72470   0.99336   1.000
    O67     O    0.11486   0.63839   0.96723   1.000
    O68     O    0.17751   0.66719   0.99643   1.000
    O69     O    0.11481   0.63506   0.02570   1.000
    O70     O    0.07293   0.64193   0.93230   1.000
    O71     O    0.96321   0.73228   0.91672   1.000
    O72     O    0.22779   0.70041   0.02157   1.000
    O73     O    0.14662   0.75363   0.10435   1.000
    O74     O    0.20567   0.70528   0.97940   1.000
    N75     N    0.39346   0.48119   0.21419   1.000
    O76     O    0.26965   0.51125   0.19335   1.000
    O77     O    0.34784   0.59198   0.25111   1.000
    O78     O    0.29260   0.46729   0.19447   1.000
    O79     O    0.38260   0.52123   0.12997   1.000
    O80     O    0.38276   0.46023   0.12993   1.000
    O81     O    0.31991   0.48910   0.15924   1.000
    O82     O    0.42627   0.42309   0.13097   1.000
    O83     O    0.54077   0.40535   0.21881   1.000
loop_
    _geom_bond_atom_site_label_1
    _geom_bond_atom_site_label_2
    _geom_bond_distance
    _geom_bond_site_symmetry_2
    _ccdc_geom_bond_type
    N12    O13       1.58223      .   S
    Zr1    O13       2.21215      .   S
    N12    O14       1.81360  1_655   S
    Zr8    O14       2.90916      .   S
    N12    O15       1.80728      .   S
    Zr2    O15       2.86261      .   S
    N12    O16       1.03766      .   S
    Zr0    O16       2.06658      .   S
    N12    O17       1.43233      .   S
    Zr4    O17       2.51566  1_545   S
    N12    O18       1.10765      .   S
    Zr0    O18       2.01287      .   S
    N12    O19       1.34418      .   S
    Zr1    O19       2.37327      .   S
    N12    O20       1.31279      .   S
    Zr0    O20       1.86609      .   S
    N21    O22       1.58253      .   S
    Zr4    O22       2.21287      .   S
    N21    O23       1.81400  1_655   S
    Zr11   O23       2.91023      .   S
    N21    O24       1.31356      .   S
    Zr3    O24       1.86653      .   S
    N21    O25       1.80641      .   S
    Zr5    O25       2.86309      .   S
    N21    O26       1.03875      .   S
    Zr3    O26       2.06641      .   S
    N21    O27       1.43047      .   S
    Zr1    O27       2.51169  1_565   S
    N21    O28       1.10744      .   S
    Zr3    O28       2.01380      .   S
    N21    O29       1.34403      .   S
    Zr4    O29       2.37461      .   S
    N30    O31       1.31625      .   S
    Zr7    O31       1.86918      .   S
    N30    O32       1.04214      .   S
    Zr7    O32       2.06998      .   S
    N30    O33       1.43213      .   S
    Zr9    O33       2.51301      .   S
    N30    O34       1.33757      .   S
    Zr6    O34       2.36107      .   S
    N30    O35       1.11137      .   S
    Zr7    O35       2.01583      .   S
    N30    O36       1.57571      .   S
    Zr6    O36       2.19949      .   S
    N30    O37       1.81713      .   S
    Zr2    O37       2.91033      .   S
    N30    O38       1.79932      .   S
    Zr11   O38       2.84995      .   S
    N39    O40       1.31602  1_565   S
    Zr1    O40       1.86838  1_565   S
    N39    O41       1.79932  1_565   S
    Zr5    O41       2.84968      .   S
    N39    O42       1.04167      .   S
    Zr1    O42       2.06956      .   S
    N39    O43       1.43235  1_565   S
    Zr3    O43       2.51319      .   S
    N39    O44       1.33791      .   S
    Zr0    O44       2.36208      .   S
    N39    O45       1.11117      .   S
    Zr1    O45       2.01513      .   S
    N39    O46       1.57624      .   S
    Zr0    O46       2.20016      .   S
    N39    O47       1.81702      .   S
    Zr8    O47       2.91017      .   S
    N48    O49       1.31592  1_545   S
    Zr4    O49       1.86870  1_545   S
    N48    O50       1.79831  1_545   S
    Zr2    O50       2.84952      .   S
    N48    O51       1.81710      .   S
    Zr11   O51       2.91154      .   S
    N48    O52       1.04105      .   S
    Zr4    O52       2.07032      .   S
    N48    O53       1.43192  1_545   S
    Zr0    O53       2.51324      .   S
    N48    O54       1.33971      .   S
    Zr3    O54       2.36563      .   S
    N48    O55       1.11161      .   S
    Zr4    O55       2.01387      .   S
    N48    O56       1.57856      .   S
    Zr3    O56       2.20336      .   S
    N57    O58       1.58287      .   S
    Zr10   O58       2.21276      .   S
    N57    O59       1.81355  1_455   S
    Zr5    O59       2.90937      .   S
    N57    O60       1.31367  1_554   S
    Zr9    O60       1.86647      .   S
    N57    O61       1.80572  1_554   S
    Zr11   O61       2.86257      .   S
    N57    O62       1.03900      .   S
    Zr9    O62       2.06634  1_556   S
    N57    O63       1.43000  1_554   S
    Zr7    O63       2.51035      .   S
    N57    O64       1.10755  1_554   S
    Zr9    O64       2.01364      .   S
    N57    O65       1.34392      .   S
    Zr10   O65       2.37493      .   S
    N66    O67       1.34857      .   S
    Zr7    O67       2.35953      .   S
    N66    O68       1.10648      .   S
    Zr6    O68       2.01371      .   S
    N66    O69       1.42630  1_556   S
    Zr10   O69       2.52865      .   S
    N66    O70       1.58030      .   S
    Zr7    O70       2.20994      .   S
    N66    O71       1.81165  1_455   S
    Zr2    O71       2.90728      .   S
    N66    O72       1.31410  1_556   S
    Zr6    O72       1.86532  1_556   S
    N66    O73       1.80980  1_556   S
    Zr8    O73       2.86487      .   S
    N66    O74       1.03713      .   S
    Zr6    O74       2.06705      .   S
    N75    O76       1.31595      .   S
    Zr10   O76       1.86902      .   S
    N75    O77       1.79755      .   S
    Zr8    O77       2.84857      .   S
    N75    O78       1.04114      .   S
    Zr10   O78       2.07050      .   S
    N75    O79       1.43201      .   S
    Zr6    O79       2.51343  1_556   S
    N75    O80       1.33971      .   S
    Zr9    O80       2.36531  1_556   S
    N75    O81       1.11179      .   S
    Zr10   O81       2.01393      .   S
    N75    O82       1.57857      .   S
    Zr9    O82       2.20309  1_556   S
    N75    O83       1.81611      .   S
    Zr5    O83       2.91063      .   S
