# CIF file generated by openbabel 2.4.90, see http://openbabel.sf.net
data_I
_chemical_name_common ''
_cell_length_a 14.277
_cell_length_b 14.864
_cell_length_c 15.152
_cell_angle_alpha 90.015
_cell_angle_beta 90.487
_cell_angle_gamma 90.041
_space_group_name_H-M_alt 'P 1'
_space_group_name_Hall 'P 1'
loop_
    _symmetry_equiv_pos_as_xyz
    x,y,z
loop_
    _atom_site_label
    _atom_site_type_symbol
    _atom_site_fract_x
    _atom_site_fract_y
    _atom_site_fract_z
    _atom_site_occupancy
    H0      H    0.90878   0.77320   0.00000   1.000
    H1      H    0.76775   0.01864   0.93682   1.000
    H2      H    0.00000   0.92390   0.78408   1.000
    H3      H    0.59052   0.22684   0.51092   1.000
    H4      H    0.73180   0.98293   0.43571   1.000
    H5      H    0.49615   0.07829   0.28283   1.000
    H6      H    0.09105   0.27319   0.48994   1.000
    H7      H    0.23213   0.51887   0.56294   1.000
    H8      H    0.99882   0.42394   0.71580   1.000
    H9      H    0.40933   0.72665   0.98908   1.000
    H10     H    0.26806   0.48252   0.06416   1.000
    H11     H    0.50387   0.57810   0.21694   1.000
    C12     C    0.96249   0.84106   0.89507   1.000
    C13     C    0.90179   0.83117   0.96655   1.000
    C14     C    0.83212   0.89547   0.98198   1.000
    C15     C    0.82258   0.96932   0.92527   1.000
    C16     C    0.88349   0.97960   0.85403   1.000
    C17     C    0.95377   0.91575   0.83937   1.000
    C18     C    0.53560   0.15991   0.39513   1.000
    C19     C    0.59720   0.16935   0.46696   1.000
    C20     C    0.66749   0.10529   0.48190   1.000
    C21     C    0.67653   0.03209   0.42452   1.000
    C22     C    0.61478   0.02237   0.35288   1.000
    C23     C    0.54403   0.08600   0.33855   1.000
    C24     C    0.03740   0.34109   0.60480   1.000
    C25     C    0.09807   0.33121   0.53331   1.000
    C26     C    0.16775   0.39557   0.51785   1.000
    C27     C    0.17729   0.46949   0.57452   1.000
    C28     C    0.11641   0.47976   0.64577   1.000
    C29     C    0.04615   0.41583   0.66049   1.000
    C30     C    0.46436   0.65973   0.10475   1.000
    C31     C    0.40268   0.66912   0.03298   1.000
    C32     C    0.33237   0.60499   0.01801   1.000
    C33     C    0.32336   0.53173   0.07534   1.000
    C34     C    0.38518   0.52207   0.14693   1.000
    C35     C    0.45595   0.58578   0.16126   1.000
loop_
    _geom_bond_atom_site_label_1
    _geom_bond_atom_site_label_2
    _geom_bond_distance
    _geom_bond_site_symmetry_2
    _ccdc_geom_bond_type
    H0     C13       1.00441  1_554   S
    C32    C31       1.40092      .   S
    C32    C33       1.39961      .   S
    C31    C30       1.40051      .   S
    C31    H9        1.08802  1_554   S
    H10    C33       1.08804      .   S
    C33    C34       1.40013      .   S
    C30    C35       1.39926      .   S
    C34    C35       1.39973      .   S
    C35    H11       1.08778      .   S
    H5     C23       1.08782      .   S
    C23    C22       1.39976      .   S
    C23    C18       1.39928      .   S
    C22    C21       1.40000      .   S
    C18    C19       1.40044      .   S
    C21    H4        1.08803  1_545   S
    C21    C20       1.39941      .   S
    C19    C20       1.40083      .   S
    C19    H3        1.08808      .   S
    H6     C25       1.08816      .   S
    C26    C25       1.40095      .   S
    C26    C27       1.40016      .   S
    C25    C24       1.40043      .   S
    H7     C27       1.08814      .   S
    C27    C28       1.40013      .   S
    C24    C29       1.39964      .   S
    C28    C29       1.40050      .   S
    C29    H8        1.08777  1_455   S
    H2     C17       1.07773  1_455   S
    C17    C16       1.40064      .   S
    C17    C12       1.39973      .   S
    C16    C15       1.40020      .   S
    C12    C13       1.40052      .   S
    C15    H1        1.08814  1_565   S
    C15    C14       1.40022      .   S
    C13    C14       1.40103      .   S
