# CIF file generated by openbabel 2.4.90, see http://openbabel.sf.net
data_I
_chemical_name_common ''
_cell_length_a 14.277
_cell_length_b 14.864
_cell_length_c 15.152
_cell_angle_alpha 90.015
_cell_angle_beta 90.487
_cell_angle_gamma 90.041
_space_group_name_H-M_alt 'P 1'
_space_group_name_Hall 'P 1'
loop_
    _symmetry_equiv_pos_as_xyz
    x,y,z
loop_
    _atom_site_label
    _atom_site_type_symbol
    _atom_site_fract_x
    _atom_site_fract_y
    _atom_site_fract_z
    _atom_site_occupancy
    N0      N    0.39391   0.59563   0.08994   1.000
    N1      N    0.89253   0.90535   0.90924   1.000
    N2      N    0.60601   0.09590   0.40993   1.000
    N3      N    0.10723   0.40544   0.58949   1.000
    Zr4     Zr   0.13992   0.64594   0.84218   1.000
    O5      O    0.12713   0.55394   0.73757   1.000
    O6      O    0.04284   0.75088   0.87004   1.000
    O7      O    0.24318   0.62434   0.93862   1.000
    Zr8     Zr   0.64091   0.85555   0.15673   1.000
    O9      O    0.54420   0.75029   0.12914   1.000
    O10     O    0.74346   0.87674   0.06063   1.000
    O11     O    0.62690   0.94780   0.26128   1.000
    Zr12    Zr   0.85995   0.14596   0.65776   1.000
    O13     O    0.87273   0.05388   0.76203   1.000
    O14     O    0.95701   0.25091   0.62959   1.000
    O15     O    0.75668   0.12449   0.56130   1.000
    Zr16    Zr   0.35904   0.35551   0.34320   1.000
    O17     O    0.37305   0.44765   0.23861   1.000
    O18     O    0.25643   0.37676   0.43898   1.000
    O19     O    0.45574   0.25037   0.37077   1.000
loop_
    _geom_bond_atom_site_label_1
    _geom_bond_atom_site_label_2
    _geom_bond_distance
    _geom_bond_site_symmetry_2
    _ccdc_geom_bond_type
    Zr4    O5        2.09990      .   S
    N3     O5        3.15794      .   S
    Zr4    O6        2.13185      .   S
    N1     O6        3.20279  1_655   S
    Zr4    O7        2.09192      .   S
    N0     O7        3.16028  1_554   S
    Zr8    O9        2.12502      .   S
    N0     O9        3.19572      .   S
    Zr8    O10       2.09731      .   S
    N1     O10       3.17086  1_556   S
    Zr8    O11       2.10581      .   S
    N2     O11       3.16506  1_545   S
    Zr12   O13       2.09747      .   S
    N1     O13       3.14998  1_565   S
    Zr12   O14       2.13150      .   S
    N3     O14       3.20320  1_455   S
    Zr12   O15       2.09134      .   S
    N2     O15       3.15957      .   S
    Zr16   O17       2.10551      .   S
    N0     O17       3.16459      .   S
    Zr16   O18       2.09491      .   S
    N3     O18       3.16282      .   S
    Zr16   O19       2.12522      .   S
    N2     O19       3.19580      .   S
