# CIF file generated by openbabel 2.4.90, see http://openbabel.sf.net
data_I
_chemical_name_common ''
_cell_length_a 20.211
_cell_length_b 23.023
_cell_length_c 14.943
_cell_angle_alpha 91.186
_cell_angle_beta 89.997
_cell_angle_gamma 89.948
_space_group_name_H-M_alt 'P 1'
_space_group_name_Hall 'P 1'
loop_
    _symmetry_equiv_pos_as_xyz
    x,y,z
loop_
    _atom_site_label
    _atom_site_type_symbol
    _atom_site_fract_x
    _atom_site_fract_y
    _atom_site_fract_z
    _atom_site_occupancy
    N0      N    0.85863   0.78796   0.05440   1.000
    N1      N    0.31845   0.27469   0.32017   1.000
    N2      N    0.81844   0.77470   0.32017   1.000
    N3      N    0.63613   0.03531   0.94224   1.000
    N4      N    0.31845   0.77470   0.32017   1.000
    N5      N    0.13614   0.53531   0.94224   1.000
    N6      N    0.30010   0.37898   0.53193   1.000
    N7      N    0.16962   0.33699   0.17250   1.000
    N8      N    0.81844   0.27469   0.32017   1.000
    N9      N    0.18154   0.22532   0.67983   1.000
    N10     N    0.68152   0.22532   0.67983   1.000
    N11     N    0.56842   0.97528   0.17982   1.000
    N12     N    0.89138   0.53780   0.55445   1.000
    N13     N    0.23671   0.01014   0.70686   1.000
    N14     N    0.10860   0.46222   0.44555   1.000
    N15     N    0.91955   0.91303   0.32749   1.000
    N16     N    0.64134   0.71206   0.94559   1.000
    N17     N    0.06843   0.47528   0.17982   1.000
    N18     N    0.14136   0.71206   0.94559   1.000
    N19     N    0.36385   0.46470   0.05776   1.000
    N20     N    0.48664   0.23987   0.79316   1.000
    N21     N    0.48664   0.73987   0.79316   1.000
    N22     N    0.06843   0.97528   0.17982   1.000
    N23     N    0.35864   0.78796   0.05441   1.000
    N24     N    0.56841   0.47528   0.17982   1.000
    N25     N    0.58042   0.08698   0.67251   1.000
    N26     N    0.68153   0.72532   0.67983   1.000
    N27     N    0.55010   0.87099   0.96803   1.000
    N28     N    0.73670   0.51014   0.70686   1.000
    N29     N    0.11391   0.78538   0.44228   1.000
    N30     N    0.08043   0.58699   0.67251   1.000
    N31     N    0.69988   0.12103   0.46806   1.000
    N32     N    0.69988   0.62104   0.46806   1.000
    N33     N    0.43156   0.52474   0.82019   1.000
    N34     N    0.23671   0.51014   0.70686   1.000
    N35     N    0.30010   0.87899   0.53193   1.000
    N36     N    0.11391   0.28537   0.44228   1.000
    N37     N    0.76327   0.48987   0.29312   1.000
    N38     N    0.41956   0.41303   0.32748   1.000
    N39     N    0.41956   0.91303   0.32747   1.000
    N40     N    0.91954   0.41303   0.32747   1.000
    N41     N    0.80009   0.37898   0.53194   1.000
    N42     N    0.26328   0.98987   0.29314   1.000
    N43     N    0.13614   0.03531   0.94224   1.000
    N44     N    0.05011   0.87099   0.96803   1.000
    N45     N    0.19989   0.62104   0.46806   1.000
    N46     N    0.19989   0.12103   0.46806   1.000
    N47     N    0.94987   0.62903   0.03197   1.000
    N48     N    0.80009   0.87899   0.53193   1.000
    N49     N    0.35863   0.28795   0.05440   1.000
    N50     N    0.51334   0.26014   0.20683   1.000
    N51     N    0.51334   0.76015   0.20683   1.000
    N52     N    0.76327   0.98987   0.29314   1.000
    N53     N    0.26328   0.48987   0.29314   1.000
    N54     N    0.66961   0.83700   0.17250   1.000
    N55     N    0.39139   0.53780   0.55445   1.000
    N56     N    0.01335   0.26014   0.20683   1.000
    N57     N    0.01335   0.76015   0.20683   1.000
    N58     N    0.61390   0.78538   0.44228   1.000
    N59     N    0.66961   0.33699   0.17252   1.000
    N60     N    0.44988   0.12903   0.03197   1.000
    N61     N    0.61389   0.28537   0.44228   1.000
    N62     N    0.86384   0.96471   0.05776   1.000
    N63     N    0.60859   0.46221   0.44555   1.000
    N64     N    0.10860   0.96222   0.44555   1.000
    N65     N    0.60859   0.96222   0.44555   1.000
    N66     N    0.94987   0.12903   0.03197   1.000
    N67     N    0.98663   0.73987   0.79316   1.000
    N68     N    0.33037   0.16301   0.82747   1.000
    N69     N    0.73670   0.01014   0.70686   1.000
    N70     N    0.08043   0.08698   0.67250   1.000
    N71     N    0.55009   0.37098   0.96802   1.000
    N72     N    0.88607   0.21463   0.55772   1.000
    N73     N    0.38609   0.71464   0.55771   1.000
    N74     N    0.44988   0.62903   0.03196   1.000
    N75     N    0.38608   0.21463   0.55771   1.000
    N76     N    0.64134   0.21206   0.94557   1.000
    N77     N    0.89138   0.03779   0.55445   1.000
    N78     N    0.39139   0.03779   0.55445   1.000
    N79     N    0.88607   0.71464   0.55772   1.000
    N80     N    0.98663   0.23987   0.79316   1.000
    N81     N    0.14135   0.21206   0.94559   1.000
    N82     N    0.43156   0.02473   0.82018   1.000
    N83     N    0.16962   0.83700   0.17250   1.000
    N84     N    0.93155   0.02473   0.82018   1.000
    N85     N    0.85862   0.28795   0.05441   1.000
    N86     N    0.05011   0.37098   0.96803   1.000
    N87     N    0.33037   0.66302   0.82747   1.000
    N88     N    0.18154   0.72532   0.67983   1.000
    N89     N    0.58042   0.58699   0.67251   1.000
    N90     N    0.63613   0.53531   0.94224   1.000
    N91     N    0.93155   0.52474   0.82019   1.000
    N92     N    0.36385   0.96471   0.05776   1.000
    N93     N    0.86384   0.46470   0.05776   1.000
    N94     N    0.83036   0.16301   0.82745   1.000
    N95     N    0.83036   0.66302   0.82747   1.000
    Zr96    Zr   0.46392   0.37759   0.13166   1.000
    O97     O    0.49170   0.37162   0.07704   1.000
    O98     O    0.43389   0.40817   0.10463   1.000
    O99     O    0.44544   0.38951   0.19491   1.000
    O100    O    0.48191   0.34040   0.16085   1.000
    O101    O    0.42654   0.34869   0.11008   1.000
    O102    O    0.50008   0.40794   0.15118   1.000
    Zr103   Zr   0.30858   0.37983   0.19124   1.000
    O104    O    0.26344   0.36444   0.17964   1.000
    O105    O    0.34835   0.39091   0.23215   1.000
    O106    O    0.30926   0.34669   0.23813   1.000
    O107    O    0.32946   0.35009   0.14732   1.000
    O108    O    0.32310   0.40915   0.14621   1.000
    O109    O    0.29105   0.41424   0.22845   1.000
    Zr110   Zr   0.71391   0.87245   0.36836   1.000
    O111    O    0.74169   0.87839   0.42295   1.000
    O112    O    0.73187   0.90963   0.33915   1.000
    O113    O    0.67652   0.90139   0.38993   1.000
    O114    O    0.68390   0.84188   0.39540   1.000
    O115    O    0.75009   0.84208   0.34883   1.000
    O116    O    0.69545   0.86052   0.30510   1.000
    Zr117   Zr   0.00000   0.00000   0.00000   1.000
    O118    O    0.04355   0.01532   0.97766   1.000
    O119    O    0.97594   0.00496   0.94032   1.000
    O120    O    0.98057   0.04159   0.01282   1.000
    O121    O    0.02405   0.99505   0.05968   1.000
    O122    O    0.01942   0.95841   0.98718   1.000
    O123    O    0.95644   0.98468   0.02234   1.000
    Zr124   Zr   0.74998   0.00000   0.50000   1.000
    O125    O    0.79831   0.01050   0.51406   1.000
    O126    O    0.76424   0.95811   0.50522   1.000
    O127    O    0.70166   0.98951   0.48594   1.000
    O128    O    0.73573   0.04189   0.49478   1.000
    O129    O    0.74631   1.00000   0.56888   1.000
    O130    O    0.75365   0.00001   0.43112   1.000
    Zr131   Zr   0.78606   0.62757   0.63164   1.000
    O132    O    0.81607   0.65814   0.60461   1.000
    O133    O    0.75828   0.62163   0.57705   1.000
    O134    O    0.82345   0.59863   0.61007   1.000
    O135    O    0.74988   0.65794   0.65117   1.000
    O136    O    0.80452   0.63950   0.69490   1.000
    O137    O    0.76810   0.59039   0.66085   1.000
    Zr138   Zr   0.69139   0.62018   0.80876   1.000
    O139    O    0.67052   0.64992   0.85268   1.000
    O140    O    0.69072   0.65332   0.76187   1.000
    O141    O    0.70893   0.58577   0.77155   1.000
    O142    O    0.65163   0.60910   0.76785   1.000
    O143    O    0.73654   0.63558   0.82035   1.000
    O144    O    0.67688   0.59086   0.85379   1.000
    Zr145   Zr   0.78606   0.12757   0.63164   1.000
    O146    O    0.74988   0.15794   0.65117   1.000
    O147    O    0.76809   0.09039   0.66085   1.000
    O148    O    0.80452   0.13949   0.69489   1.000
    O149    O    0.75827   0.12162   0.57705   1.000
    O150    O    0.81607   0.15813   0.60461   1.000
    O151    O    0.82345   0.09863   0.61007   1.000
    Zr152   Zr   0.55860   0.87020   0.30875   1.000
    O153    O    0.51342   0.88560   0.32034   1.000
    O154    O    0.57312   0.84090   0.35379   1.000
    O155    O    0.54109   0.83579   0.27153   1.000
    O156    O    0.55926   0.90332   0.26186   1.000
    O157    O    0.59838   0.85912   0.26784   1.000
    O158    O    0.57945   0.89998   0.35267   1.000
    Zr159   Zr   0.96391   0.87759   0.13166   1.000
    O160    O    0.98191   0.84041   0.16085   1.000
    O161    O    0.93388   0.90818   0.10463   1.000
    O162    O    0.99170   0.87163   0.07705   1.000
    O163    O    0.94543   0.88952   0.19492   1.000
    O164    O    0.92653   0.84869   0.11007   1.000
    O165    O    0.00008   0.90794   0.15118   1.000
    Zr166   Zr   0.55859   0.37020   0.30875   1.000
    O167    O    0.59838   0.35911   0.26785   1.000
    O168    O    0.51342   0.38559   0.32035   1.000
    O169    O    0.55925   0.40332   0.26186   1.000
    O170    O    0.57312   0.34089   0.35379   1.000
    O171    O    0.57944   0.39998   0.35267   1.000
    O172    O    0.54108   0.33578   0.27153   1.000
    Zr173   Zr   0.00000   0.75001   0.00000   1.000
    O174    O    0.04831   0.73945   0.98597   1.000
    O175    O    0.99631   0.75001   0.93112   1.000
    O176    O    0.00369   0.75000   0.06887   1.000
    O177    O    0.01426   0.79189   0.99476   1.000
    O178    O    0.98574   0.70813   0.00524   1.000
    O179    O    0.95169   0.76057   0.01403   1.000
    Zr180   Zr   0.80857   0.37983   0.19124   1.000
    O181    O    0.79104   0.41424   0.22845   1.000
    O182    O    0.84834   0.39091   0.23215   1.000
    O183    O    0.80925   0.34669   0.23813   1.000
    O184    O    0.82309   0.40915   0.14621   1.000
    O185    O    0.82945   0.35009   0.14731   1.000
    O186    O    0.76343   0.36444   0.17965   1.000
    Zr187   Zr   0.99998   0.50001   0.00000   1.000
    O188    O    0.01941   0.45841   0.98718   1.000
    O189    O    0.98056   0.54160   0.01282   1.000
    O190    O    0.97593   0.50496   0.94032   1.000
    O191    O    0.04354   0.51533   0.97766   1.000
    O192    O    0.02404   0.49505   0.05968   1.000
    O193    O    0.95642   0.48468   0.02234   1.000
    Zr194   Zr   0.24999   0.25000   0.50000   1.000
    O195    O    0.23057   0.20843   0.48719   1.000
    O196    O    0.29353   0.23466   0.52233   1.000
    O197    O    0.27405   0.25495   0.44032   1.000
    O198    O    0.26941   0.29158   0.51281   1.000
    O199    O    0.20646   0.26535   0.47767   1.000
    O200    O    0.22593   0.24506   0.55968   1.000
    Zr201   Zr   0.74998   0.50001   0.50000   1.000
    O202    O    0.79831   0.51051   0.51406   1.000
    O203    O    0.75366   0.50001   0.43111   1.000
    O204    O    0.76424   0.45812   0.50522   1.000
    O205    O    0.73573   0.54190   0.49478   1.000
    O206    O    0.74631   0.50000   0.56888   1.000
    O207    O    0.70166   0.48951   0.48594   1.000
    Zr208   Zr   0.21392   0.37244   0.36836   1.000
    O209    O    0.19546   0.36051   0.30510   1.000
    O210    O    0.17653   0.40138   0.38993   1.000
    O211    O    0.24170   0.37839   0.42295   1.000
    O212    O    0.23188   0.40962   0.33915   1.000
    O213    O    0.25010   0.34207   0.34883   1.000
    O214    O    0.18391   0.34187   0.39540   1.000
    Zr215   Zr   0.03607   0.62243   0.86834   1.000
    O216    O    0.06610   0.59184   0.89537   1.000
    O217    O    0.00828   0.62839   0.92295   1.000
    O218    O    0.99990   0.59208   0.84883   1.000
    O219    O    0.05455   0.61050   0.80508   1.000
    O220    O    0.01807   0.65961   0.83914   1.000
    O221    O    0.07345   0.65133   0.88992   1.000
    Zr222   Zr   0.46392   0.87759   0.13166   1.000
    O223    O    0.49170   0.87163   0.07705   1.000
    O224    O    0.44544   0.88952   0.19491   1.000
    O225    O    0.50008   0.90794   0.15118   1.000
    O226    O    0.42654   0.84869   0.11008   1.000
    O227    O    0.43389   0.90818   0.10463   1.000
    O228    O    0.48192   0.84041   0.16085   1.000
    Zr229   Zr   0.30859   0.87984   0.19124   1.000
    O230    O    0.30926   0.84670   0.23813   1.000
    O231    O    0.34836   0.89092   0.23215   1.000
    O232    O    0.32310   0.90916   0.14621   1.000
    O233    O    0.29105   0.91425   0.22845   1.000
    O234    O    0.26344   0.86444   0.17964   1.000
    O235    O    0.32946   0.85010   0.14731   1.000
    Zr236   Zr   0.03607   0.12242   0.86834   1.000
    O237    O    0.00828   0.12839   0.92295   1.000
    O238    O    0.05455   0.11050   0.80508   1.000
    O239    O    0.99990   0.09207   0.84882   1.000
    O240    O    0.07345   0.15132   0.88992   1.000
    O241    O    0.01807   0.15961   0.83914   1.000
    O242    O    0.06610   0.09184   0.89537   1.000
    Zr243   Zr   0.53606   0.62243   0.86834   1.000
    O244    O    0.51807   0.65961   0.83914   1.000
    O245    O    0.56609   0.59184   0.89537   1.000
    O246    O    0.55454   0.61050   0.80508   1.000
    O247    O    0.49990   0.59208   0.84883   1.000
    O248    O    0.50828   0.62839   0.92295   1.000
    O249    O    0.57344   0.65133   0.88992   1.000
    Zr250   Zr   0.28607   0.12757   0.63164   1.000
    O251    O    0.30453   0.13949   0.69490   1.000
    O252    O    0.26811   0.09039   0.66085   1.000
    O253    O    0.32346   0.09863   0.61007   1.000
    O254    O    0.25829   0.12162   0.57705   1.000
    O255    O    0.24989   0.15794   0.65117   1.000
    O256    O    0.31608   0.15813   0.60460   1.000
    Zr257   Zr   0.80857   0.87984   0.19124   1.000
    O258    O    0.82309   0.90916   0.14621   1.000
    O259    O    0.80925   0.84670   0.23813   1.000
    O260    O    0.76343   0.86444   0.17964   1.000
    O261    O    0.82945   0.85010   0.14731   1.000
    O262    O    0.79104   0.91425   0.22845   1.000
    O263    O    0.84834   0.89092   0.23215   1.000
    Zr264   Zr   0.71391   0.37244   0.36836   1.000
    O265    O    0.67652   0.40138   0.38993   1.000
    O266    O    0.68390   0.34187   0.39540   1.000
    O267    O    0.69545   0.36051   0.30510   1.000
    O268    O    0.73187   0.40962   0.33915   1.000
    O269    O    0.75008   0.34207   0.34883   1.000
    O270    O    0.74169   0.37839   0.42295   1.000
    Zr271   Zr   0.94137   0.62982   0.69125   1.000
    O272    O    0.98655   0.61442   0.67965   1.000
    O273    O    0.95888   0.66423   0.72846   1.000
    O274    O    0.92685   0.65912   0.64621   1.000
    O275    O    0.92052   0.60004   0.64733   1.000
    O276    O    0.90159   0.64090   0.73215   1.000
    O277    O    0.94071   0.59669   0.73814   1.000
    Zr278   Zr   0.94137   0.12981   0.69125   1.000
    O279    O    0.95888   0.16423   0.72846   1.000
    O280    O    0.90159   0.14090   0.73215   1.000
    O281    O    0.94071   0.09669   0.73814   1.000
    O282    O    0.92684   0.15911   0.64621   1.000
    O283    O    0.98655   0.11442   0.67965   1.000
    O284    O    0.92052   0.10003   0.64733   1.000
    Zr285   Zr   0.53606   0.12242   0.86834   1.000
    O286    O    0.56609   0.09184   0.89537   1.000
    O287    O    0.55454   0.11050   0.80508   1.000
    O288    O    0.57344   0.15132   0.88991   1.000
    O289    O    0.49989   0.09207   0.84882   1.000
    O290    O    0.51806   0.15961   0.83914   1.000
    O291    O    0.50828   0.12839   0.92295   1.000
    Zr292   Zr   0.44138   0.12981   0.69125   1.000
    O293    O    0.42053   0.10003   0.64733   1.000
    O294    O    0.45889   0.16423   0.72846   1.000
    O295    O    0.44072   0.09669   0.73814   1.000
    O296    O    0.40160   0.14090   0.73215   1.000
    O297    O    0.42685   0.15911   0.64621   1.000
    O298    O    0.48655   0.11442   0.67965   1.000
    Zr299   Zr   0.49999   0.25000   0.00000   1.000
    O300    O    0.48573   0.20812   0.00524   1.000
    O301    O    0.45168   0.26056   0.01403   1.000
    O302    O    0.50368   0.25000   0.06887   1.000
    O303    O    0.49630   0.25001   0.93112   1.000
    O304    O    0.51424   0.29188   0.99475   1.000
    O305    O    0.54830   0.23944   0.98595   1.000
    Zr306   Zr   0.74998   0.25000   0.50000   1.000
    O307    O    0.72592   0.24506   0.55968   1.000
    O308    O    0.70644   0.26535   0.47767   1.000
    O309    O    0.76940   0.29158   0.51281   1.000
    O310    O    0.73056   0.20843   0.48719   1.000
    O311    O    0.79352   0.23466   0.52233   1.000
    O312    O    0.77404   0.25495   0.44032   1.000
    Zr313   Zr   0.05861   0.87020   0.30875   1.000
    O314    O    0.07314   0.84090   0.35379   1.000
    O315    O    0.04110   0.83579   0.27153   1.000
    O316    O    0.07946   0.89998   0.35267   1.000
    O317    O    0.05927   0.90332   0.26186   1.000
    O318    O    0.09839   0.85912   0.26784   1.000
    O319    O    0.01343   0.88560   0.32035   1.000
    Zr320   Zr   0.69139   0.12018   0.80876   1.000
    O321    O    0.65162   0.10909   0.76785   1.000
    O322    O    0.69071   0.15332   0.76187   1.000
    O323    O    0.70893   0.08577   0.77155   1.000
    O324    O    0.73654   0.13557   0.82034   1.000
    O325    O    0.67687   0.09086   0.85379   1.000
    O326    O    0.67052   0.14992   0.85268   1.000
    Zr327   Zr   0.00000   0.25000   0.00000   1.000
    O328    O    0.00369   0.25000   0.06887   1.000
    O329    O    0.98574   0.20812   0.00524   1.000
    O330    O    0.99631   0.25001   0.93112   1.000
    O331    O    0.95168   0.26056   0.01403   1.000
    O332    O    0.04831   0.23944   0.98597   1.000
    O333    O    0.01426   0.29188   0.99476   1.000
    Zr334   Zr   0.25000   0.75001   0.50000   1.000
    O335    O    0.23058   0.70844   0.48719   1.000
    O336    O    0.29353   0.73466   0.52233   1.000
    O337    O    0.26942   0.79158   0.51281   1.000
    O338    O    0.20646   0.76536   0.47767   1.000
    O339    O    0.22594   0.74507   0.55968   1.000
    O340    O    0.27406   0.75495   0.44032   1.000
    Zr341   Zr   0.28607   0.62757   0.63164   1.000
    O342    O    0.26811   0.59039   0.66085   1.000
    O343    O    0.24990   0.65794   0.65117   1.000
    O344    O    0.32346   0.59863   0.61007   1.000
    O345    O    0.31608   0.65814   0.60460   1.000
    O346    O    0.25829   0.62163   0.57705   1.000
    O347    O    0.30453   0.63950   0.69490   1.000
    Zr348   Zr   0.19140   0.12018   0.80876   1.000
    O349    O    0.20894   0.08577   0.77155   1.000
    O350    O    0.17689   0.09086   0.85379   1.000
    O351    O    0.19073   0.15332   0.76187   1.000
    O352    O    0.17053   0.14992   0.85268   1.000
    O353    O    0.15163   0.10909   0.76784   1.000
    O354    O    0.23655   0.13557   0.82035   1.000
    Zr355   Zr   0.25000   0.50001   0.50000   1.000
    O356    O    0.25367   0.50001   0.43112   1.000
    O357    O    0.26425   0.45812   0.50522   1.000
    O358    O    0.20167   0.48951   0.48594   1.000
    O359    O    0.23574   0.54190   0.49478   1.000
    O360    O    0.24632   0.50000   0.56888   1.000
    O361    O    0.29832   0.51051   0.51406   1.000
    Zr362   Zr   0.49999   0.50001   0.00000   1.000
    O363    O    0.52404   0.49505   0.05968   1.000
    O364    O    0.51941   0.45841   0.98718   1.000
    O365    O    0.48057   0.54160   0.01281   1.000
    O366    O    0.45644   0.48468   0.02234   1.000
    O367    O    0.47594   0.50496   0.94032   1.000
    O368    O    0.54354   0.51533   0.97766   1.000
    Zr369   Zr   0.19141   0.62018   0.80876   1.000
    O370    O    0.19073   0.65332   0.76187   1.000
    O371    O    0.17689   0.59086   0.85379   1.000
    O372    O    0.17053   0.64992   0.85268   1.000
    O373    O    0.15164   0.60910   0.76785   1.000
    O374    O    0.20894   0.58577   0.77155   1.000
    O375    O    0.23655   0.63558   0.82035   1.000
    Zr376   Zr   0.49999   0.00000   0.00000   1.000
    O377    O    0.51941   0.95841   0.98718   1.000
    O378    O    0.45644   0.98468   0.02234   1.000
    O379    O    0.47594   0.00496   0.94032   1.000
    O380    O    0.52404   0.99505   0.05968   1.000
    O381    O    0.54354   0.01532   0.97766   1.000
    O382    O    0.48056   0.04159   0.01282   1.000
    Zr383   Zr   0.49999   0.75001   0.00000   1.000
    O384    O    0.54830   0.73945   0.98597   1.000
    O385    O    0.49630   0.75001   0.93112   1.000
    O386    O    0.50368   0.75000   0.06887   1.000
    O387    O    0.45168   0.76057   0.01403   1.000
    O388    O    0.48574   0.70813   0.00524   1.000
    O389    O    0.51425   0.79189   0.99476   1.000
    Zr390   Zr   0.74998   0.75001   0.50000   1.000
    O391    O    0.76940   0.79158   0.51281   1.000
    O392    O    0.72592   0.74507   0.55968   1.000
    O393    O    0.79352   0.73466   0.52233   1.000
    O394    O    0.73057   0.70844   0.48719   1.000
    O395    O    0.77404   0.75495   0.44032   1.000
    O396    O    0.70645   0.76536   0.47767   1.000
    Zr397   Zr   0.96391   0.37759   0.13166   1.000
    O398    O    0.00008   0.40794   0.15118   1.000
    O399    O    0.99170   0.37162   0.07705   1.000
    O400    O    0.98191   0.34040   0.16085   1.000
    O401    O    0.92653   0.34869   0.11008   1.000
    O402    O    0.94543   0.38951   0.19491   1.000
    O403    O    0.93388   0.40817   0.10463   1.000
    Zr404   Zr   0.05860   0.37020   0.30875   1.000
    O405    O    0.01342   0.38559   0.32034   1.000
    O406    O    0.05927   0.40332   0.26186   1.000
    O407    O    0.09839   0.35911   0.26784   1.000
    O408    O    0.04110   0.33578   0.27153   1.000
    O409    O    0.07313   0.34089   0.35379   1.000
    O410    O    0.07946   0.39998   0.35267   1.000
    Zr411   Zr   0.21392   0.87245   0.36836   1.000
    O412    O    0.25010   0.84208   0.34883   1.000
    O413    O    0.17653   0.90139   0.38993   1.000
    O414    O    0.19546   0.86052   0.30510   1.000
    O415    O    0.23189   0.90963   0.33915   1.000
    O416    O    0.18391   0.84188   0.39540   1.000
    O417    O    0.24170   0.87839   0.42295   1.000
    Zr418   Zr   0.24999   0.00000   0.50000   1.000
    O419    O    0.26425   0.95811   0.50522   1.000
    O420    O    0.29832   0.01050   0.51406   1.000
    O421    O    0.25367   0.00001   0.43112   1.000
    O422    O    0.20167   0.98951   0.48594   1.000
    O423    O    0.24632   1.00000   0.56888   1.000
    O424    O    0.23574   0.04189   0.49478   1.000
    Zr425   Zr   0.44139   0.62982   0.69125   1.000
    O426    O    0.44073   0.59669   0.73814   1.000
    O427    O    0.40160   0.64090   0.73215   1.000
    O428    O    0.48656   0.61442   0.67965   1.000
    O429    O    0.42686   0.65912   0.64621   1.000
    O430    O    0.45889   0.66423   0.72846   1.000
    O431    O    0.42053   0.60004   0.64733   1.000
loop_
    _geom_bond_atom_site_label_1
    _geom_bond_atom_site_label_2
    _geom_bond_distance
    _geom_bond_site_symmetry_2
    _ccdc_geom_bond_type
    Zr96   O97       0.99769      .   S
    N71    O97       2.01144  1_556   S
    Zr96   O98       1.01896      .   S
    N19    O98       2.05503      .   S
    Zr96   O99       1.04755      .   S
    N38    O99       2.10857      .   S
    Zr96   O100      1.03460      .   S
    N50    O100      2.08337      .   S
    Zr96   O101      1.05330      .   S
    N49    O101      2.11818      .   S
    Zr96   O102      1.04884      .   S
    N24    O102      2.11439      .   S
    Zr103  O104      0.99312      .   S
    N7     O104      2.00134      .   S
    Zr103  O105      1.03869      .   S
    N38    O105      2.08112      .   S
    Zr103  O106      1.04660      .   S
    N1     O106      2.09017      .   S
    Zr103  O107      1.02882      .   S
    N49    O107      2.05874      .   S
    Zr103  O108      1.00676      .   S
    N19    O108      2.03291      .   S
    Zr103  O109      1.02155      .   S
    N53    O109      2.05181      .   S
    Zr110  O111      0.99748      .   S
    N48    O111      2.01120      .   S
    Zr110  O112      1.03492      .   S
    N52    O112      2.08400      .   S
    Zr110  O113      1.05310      .   S
    N65    O113      2.11788      .   S
    Zr110  O114      1.01924      .   S
    N58    O114      2.05563      .   S
    Zr110  O115      1.04845      .   S
    N2     O115      2.11359      .   S
    Zr110  O116      1.04772      .   S
    N54    O116      2.10901      .   S
    Zr117  O118      1.00808  1_554   S
    N43    O118      2.00128      .   S
    Zr117  O119      1.02411  1_454   S
    N84    O119      2.06601      .   S
    Zr117  O120      1.04865  1_455   S
    N66    O120      2.11960      .   S
    Zr117  O121      1.02404  1_545   S
    N22    O121      2.06585      .   S
    Zr117  O122      1.04848  1_544   S
    N44    O122      2.11933      .   S
    Zr117  O123      1.00818  1_445   S
    N62    O123      2.00148      .   S
    Zr124  O125      1.02706      .   S
    N77    O125      2.06979      .   S
    Zr124  O126      1.01081  1_545   S
    N48    O126      2.00774      .   S
    Zr124  O127      1.02700  1_545   S
    N65    O127      2.06966      .   S
    Zr124  O128      1.01091      .   S
    N31    O128      2.00788      .   S
    Zr124  O129      1.03197  1_545   S
    N69    O129      2.07921  1_545   S
    Zr124  O130      1.03198      .   S
    N52    O130      2.07920  1_565   S
    Zr131  O132      1.01924      .   S
    N79    O132      2.05561      .   S
    Zr131  O133      0.99752      .   S
    N32    O133      2.01121      .   S
    Zr131  O134      1.05309      .   S
    N12    O134      2.11787      .   S
    Zr131  O135      1.04844      .   S
    N26    O135      2.11359      .   S
    Zr131  O136      1.04764      .   S
    N95    O136      2.10875      .   S
    Zr131  O137      1.03495      .   S
    N28    O137      2.08410      .   S
    Zr138  O139      1.02879      .   S
    N16    O139      2.05866      .   S
    Zr138  O140      1.04664      .   S
    N26    O140      2.09018      .   S
    Zr138  O141      1.02155      .   S
    N28    O141      2.05181      .   S
    Zr138  O142      1.03869      .   S
    N89    O142      2.08111      .   S
    Zr138  O143      0.99310      .   S
    N95    O143      2.00132      .   S
    Zr138  O144      1.00676      .   S
    N90    O144      2.03291      .   S
    Zr145  O146      1.04844      .   S
    N10    O146      2.11359      .   S
    Zr145  O147      1.03491      .   S
    N69    O147      2.08399      .   S
    Zr145  O148      1.04758      .   S
    N94    O148      2.10857      .   S
    Zr145  O149      0.99752      .   S
    N31    O149      2.01120      .   S
    Zr145  O150      1.01924      .   S
    N72    O150      2.05561      .   S
    Zr145  O151      1.05310      .   S
    N77    O151      2.11788      .   S
    Zr152  O153      0.99296      .   S
    N39    O153      2.00110      .   S
    Zr152  O154      1.00638      .   S
    N58    O154      2.03216      .   S
    Zr152  O155      1.02202      .   S
    N51    O155      2.05287      .   S
    Zr152  O156      1.04633      .   S
    N11    O156      2.08956      .   S
    Zr152  O157      1.03851      .   S
    N54    O157      2.08086      .   S
    Zr152  O158      1.02976      .   S
    N65    O158      2.06048      .   S
    Zr159  O160      1.03467      .   S
    N57    O160      2.08347  1_455   S
    Zr159  O161      1.01895      .   S
    N62    O161      2.05501      .   S
    Zr159  O162      0.99772      .   S
    N44    O162      2.01158  1_456   S
    Zr159  O163      1.04756      .   S
    N15    O163      2.10860      .   S
    Zr159  O164      1.05331      .   S
    N0     O164      2.11818      .   S
    Zr159  O165      1.04895  1_655   S
    N22    O165      2.11453      .   S
    Zr166  O167      1.03847      .   S
    N59    O167      2.08070      .   S
    Zr166  O168      0.99296      .   S
    N38    O168      2.00110      .   S
    Zr166  O169      1.04635      .   S
    N24    O169      2.08961      .   S
    Zr166  O170      1.00639      .   S
    N61    O170      2.03216      .   S
    Zr166  O171      1.02975      .   S
    N63    O171      2.06047      .   S
    Zr166  O172      1.02202      .   S
    N50    O172      2.05287      .   S
    Zr173  O174      1.02654  1_554   S
    N18    O174      2.06879      .   S
    Zr173  O175      1.03201  1_454   S
    N67    O175      2.07921      .   S
    Zr173  O176      1.03183      .   S
    N57    O176      2.07916      .   S
    Zr173  O177      1.01116  1_554   S
    N44    O177      2.00835      .   S
    Zr173  O178      1.01120  1_455   S
    N47    O178      2.00845      .   S
    Zr173  O179      1.02673  1_455   S
    N0     O179      2.06905      .   S
    Zr180  O181      1.02151      .   S
    N37    O181      2.05171      .   S
    Zr180  O182      1.03866      .   S
    N40    O182      2.08101      .   S
    Zr180  O183      1.04660      .   S
    N8     O183      2.09017      .   S
    Zr180  O184      1.00676      .   S
    N93    O184      2.03291      .   S
    Zr180  O185      1.02881      .   S
    N85    O185      2.05864      .   S
    Zr180  O186      0.99311      .   S
    N59    O186      2.00133      .   S
    Zr187  O188      1.04862  1_654   S
    N86    O188      2.11955      .   S
    Zr187  O189      1.04859      .   S
    N47    O189      2.11951      .   S
    Zr187  O190      1.02402  1_554   S
    N91    O190      2.06587      .   S
    Zr187  O191      1.00823  1_654   S
    N5     O191      2.00153      .   S
    Zr187  O192      1.02412  1_655   S
    N17    O192      2.06599      .   S
    Zr187  O193      1.00808      .   S
    N93    O193      2.00127      .   S
    Zr194  O195      1.04878      .   S
    N46    O195      2.11988      .   S
    Zr194  O196      1.00735      .   S
    N75    O196      1.99991      .   S
    Zr194  O197      1.02423      .   S
    N1     O197      2.06631      .   S
    Zr194  O198      1.04879      .   S
    N6     O198      2.11988      .   S
    Zr194  O199      1.00737      .   S
    N36    O199      1.99994      .   S
    Zr194  O200      1.02422      .   S
    N9     O200      2.06626      .   S
    Zr201  O202      1.02706      .   S
    N12    O202      2.06979      .   S
    Zr201  O203      1.03205      .   S
    N37    O203      2.07943      .   S
    Zr201  O204      1.01090      .   S
    N41    O204      2.00788      .   S
    Zr201  O205      1.01091      .   S
    N32    O205      2.00788      .   S
    Zr201  O206      1.03198      .   S
    N28    O206      2.07920      .   S
    Zr201  O207      1.02707      .   S
    N63    O207      2.06979      .   S
    Zr208  O209      1.04772      .   S
    N7     O209      2.10901      .   S
    Zr208  O210      1.05310      .   S
    N14    O210      2.11788      .   S
    Zr208  O211      0.99748      .   S
    N6     O211      2.01120      .   S
    Zr208  O212      1.03495      .   S
    N53    O212      2.08410      .   S
    Zr208  O213      1.04845      .   S
    N1     O213      2.11359      .   S
    Zr208  O214      1.01924      .   S
    N36    O214      2.05563      .   S
    Zr215  O216      1.01896      .   S
    N5     O216      2.05503      .   S
    Zr215  O217      0.99775      .   S
    N47    O217      2.01161  1_654   S
    Zr215  O218      1.04896  1_455   S
    N91    O218      2.11457      .   S
    Zr215  O219      1.04755      .   S
    N30    O219      2.10857      .   S
    Zr215  O220      1.03469      .   S
    N67    O220      2.08353  1_655   S
    Zr215  O221      1.05328      .   S
    N18    O221      2.11811      .   S
    Zr222  O223      0.99762      .   S
    N27    O223      2.01141  1_556   S
    Zr222  O224      1.04750      .   S
    N39    O224      2.10844      .   S
    Zr222  O225      1.04883      .   S
    N11    O225      2.11434      .   S
    Zr222  O226      1.05329      .   S
    N23    O226      2.11811      .   S
    Zr222  O227      1.01895      .   S
    N92    O227      2.05501      .   S
    Zr222  O228      1.03461      .   S
    N51    O228      2.08337      .   S
    Zr229  O230      1.04660      .   S
    N4     O230      2.09018      .   S
    Zr229  O231      1.03866      .   S
    N39    O231      2.08101      .   S
    Zr229  O232      1.00674      .   S
    N92    O232      2.03286      .   S
    Zr229  O233      1.02152      .   S
    N42    O233      2.05173      .   S
    Zr229  O234      0.99312      .   S
    N83    O234      2.00134      .   S
    Zr229  O235      1.02882      .   S
    N23    O235      2.05866      .   S
    Zr236  O237      0.99775      .   S
    N66    O237      2.01160  1_654   S
    Zr236  O238      1.04758      .   S
    N70    O238      2.10868      .   S
    Zr236  O239      1.04894  1_455   S
    N84    O239      2.11452      .   S
    Zr236  O240      1.05329      .   S
    N81    O240      2.11813      .   S
    Zr236  O241      1.03468      .   S
    N80    O241      2.08351  1_655   S
    Zr236  O242      1.01895      .   S
    N43    O242      2.05501      .   S
    Zr243  O244      1.03463      .   S
    N21    O244      2.08343      .   S
    Zr243  O245      1.01896      .   S
    N90    O245      2.05503      .   S
    Zr243  O246      1.04755      .   S
    N89    O246      2.10857      .   S
    Zr243  O247      1.04884      .   S
    N33    O247      2.11438      .   S
    Zr243  O248      0.99761      .   S
    N74    O248      2.01131  1_554   S
    Zr243  O249      1.05328      .   S
    N16    O249      2.11812      .   S
    Zr250  O251      1.04764      .   S
    N68    O251      2.10875      .   S
    Zr250  O252      1.03492      .   S
    N13    O252      2.08399      .   S
    Zr250  O253      1.05308      .   S
    N78    O253      2.11785      .   S
    Zr250  O254      0.99753      .   S
    N46    O254      2.01122      .   S
    Zr250  O255      1.04844      .   S
    N9     O255      2.11359      .   S
    Zr250  O256      1.01926      .   S
    N75    O256      2.05567      .   S
    Zr257  O258      1.00675      .   S
    N62    O258      2.03287      .   S
    Zr257  O259      1.04660      .   S
    N2     O259      2.09016      .   S
    Zr257  O260      0.99312      .   S
    N54    O260      2.00133      .   S
    Zr257  O261      1.02885      .   S
    N0     O261      2.05875      .   S
    Zr257  O262      1.02153      .   S
    N52    O262      2.05173      .   S
    Zr257  O263      1.03869      .   S
    N15    O263      2.08113      .   S
    Zr264  O265      1.05310      .   S
    N63    O265      2.11786      .   S
    Zr264  O266      1.01924      .   S
    N61    O266      2.05562      .   S
    Zr264  O267      1.04765      .   S
    N59    O267      2.10880      .   S
    Zr264  O268      1.03499      .   S
    N37    O268      2.08419      .   S
    Zr264  O269      1.04846      .   S
    N8     O269      2.11360      .   S
    Zr264  O270      0.99753      .   S
    N41    O270      2.01122      .   S
    Zr271  O272      0.99313      .   S
    N30    O272      2.00138  1_455   S
    Zr271  O273      1.02201      .   S
    N67    O273      2.05280      .   S
    Zr271  O274      1.00637      .   S
    N79    O274      2.03213      .   S
    Zr271  O275      1.02973      .   S
    N12    O275      2.06046      .   S
    Zr271  O276      1.03846      .   S
    N95    O276      2.08067      .   S
    Zr271  O277      1.04635      .   S
    N91    O277      2.08962      .   S
    Zr278  O279      1.02201      .   S
    N80    O279      2.05280      .   S
    Zr278  O280      1.03842      .   S
    N94    O280      2.08054      .   S
    Zr278  O281      1.04634      .   S
    N84    O281      2.08958      .   S
    Zr278  O282      1.00637      .   S
    N72    O282      2.03213      .   S
    Zr278  O283      0.99314      .   S
    N70    O283      2.00137  1_455   S
    Zr278  O284      1.02974      .   S
    N77    O284      2.06048      .   S
    Zr285  O286      1.01894      .   S
    N3     O286      2.05500      .   S
    Zr285  O287      1.04754      .   S
    N25    O287      2.10856      .   S
    Zr285  O288      1.05325      .   S
    N76    O288      2.11803      .   S
    Zr285  O289      1.04882      .   S
    N82    O289      2.11433      .   S
    Zr285  O290      1.03463      .   S
    N20    O290      2.08343      .   S
    Zr285  O291      0.99765      .   S
    N60    O291      2.01143  1_554   S
    Zr292  O293      1.02973      .   S
    N78    O293      2.06045      .   S
    Zr292  O294      1.02200      .   S
    N20    O294      2.05279      .   S
    Zr292  O295      1.04634      .   S
    N82    O295      2.08958      .   S
    Zr292  O296      1.03846      .   S
    N68    O296      2.08067      .   S
    Zr292  O297      1.00641      .   S
    N75    O297      2.03224      .   S
    Zr292  O298      0.99296      .   S
    N25    O298      2.00109      .   S
    Zr299  O300      1.01115      .   S
    N60    O300      2.00834      .   S
    Zr299  O301      1.02657      .   S
    N49    O301      2.06880      .   S
    Zr299  O302      1.03183      .   S
    N50    O302      2.07916      .   S
    Zr299  O303      1.03199  1_554   S
    N20    O303      2.07919      .   S
    Zr299  O304      1.01117  1_554   S
    N71    O304      2.00836      .   S
    Zr299  O305      1.02659  1_554   S
    N76    O305      2.06881      .   S
    Zr306  O307      1.02422      .   S
    N10    O307      2.06626      .   S
    Zr306  O308      1.00737      .   S
    N61    O308      1.99994      .   S
    Zr306  O309      1.04879      .   S
    N41    O309      2.11989      .   S
    Zr306  O310      1.04878      .   S
    N31    O310      2.11987      .   S
    Zr306  O311      1.00738      .   S
    N72    O311      1.99996      .   S
    Zr306  O312      1.02423      .   S
    N8     O312      2.06631      .   S
    Zr313  O314      1.00639      .   S
    N29    O314      2.03216      .   S
    Zr313  O315      1.02201      .   S
    N57    O315      2.05286      .   S
    Zr313  O316      1.02975      .   S
    N64    O316      2.06047      .   S
    Zr313  O317      1.04633      .   S
    N22    O317      2.08957      .   S
    Zr313  O318      1.03852      .   S
    N83    O318      2.08087      .   S
    Zr313  O319      0.99312      .   S
    N15    O319      2.00138  1_655   S
    Zr320  O321      1.03869      .   S
    N25    O321      2.08111      .   S
    Zr320  O322      1.04664      .   S
    N10    O322      2.09018      .   S
    Zr320  O323      1.02153      .   S
    N69    O323      2.05174      .   S
    Zr320  O324      0.99307      .   S
    N94    O324      2.00132      .   S
    Zr320  O325      1.00675      .   S
    N3     O325      2.03287      .   S
    Zr320  O326      1.02874      .   S
    N76    O326      2.05850      .   S
    Zr327  O328      1.03183      .   S
    N56    O328      2.07916      .   S
    Zr327  O329      1.01120  1_455   S
    N66    O329      2.00844      .   S
    Zr327  O330      1.03201  1_454   S
    N80    O330      2.07921      .   S
    Zr327  O331      1.02674  1_455   S
    N85    O331      2.06909      .   S
    Zr327  O332      1.02655  1_554   S
    N81    O332      2.06879      .   S
    Zr327  O333      1.01116  1_554   S
    N86    O333      2.00835      .   S
    Zr334  O335      1.04878      .   S
    N45    O335      2.11987      .   S
    Zr334  O336      1.00735      .   S
    N73    O336      1.99991      .   S
    Zr334  O337      1.04879      .   S
    N35    O337      2.11988      .   S
    Zr334  O338      1.00737      .   S
    N29    O338      1.99995      .   S
    Zr334  O339      1.02422      .   S
    N88    O339      2.06626      .   S
    Zr334  O340      1.02423      .   S
    N4     O340      2.06631      .   S
    Zr341  O342      1.03495      .   S
    N34    O342      2.08410      .   S
    Zr341  O343      1.04844      .   S
    N88    O343      2.11360      .   S
    Zr341  O344      1.05309      .   S
    N55    O344      2.11786      .   S
    Zr341  O345      1.01926      .   S
    N73    O345      2.05567      .   S
    Zr341  O346      0.99752      .   S
    N45    O346      2.01121      .   S
    Zr341  O347      1.04764      .   S
    N87    O347      2.10875      .   S
    Zr348  O349      1.02153      .   S
    N13    O349      2.05174      .   S
    Zr348  O350      1.00675      .   S
    N43    O350      2.03287      .   S
    Zr348  O351      1.04664      .   S
    N9     O351      2.09018      .   S
    Zr348  O352      1.02879      .   S
    N81    O352      2.05867      .   S
    Zr348  O353      1.03871      .   S
    N70    O353      2.08119      .   S
    Zr348  O354      0.99310      .   S
    N68    O354      2.00132      .   S
    Zr355  O356      1.03198      .   S
    N53    O356      2.07920      .   S
    Zr355  O357      1.01090      .   S
    N6     O357      2.00787      .   S
    Zr355  O358      1.02706      .   S
    N14    O358      2.06978      .   S
    Zr355  O359      1.01091      .   S
    N45    O359      2.00788      .   S
    Zr355  O360      1.03197      .   S
    N34    O360      2.07920      .   S
    Zr355  O361      1.02707      .   S
    N55    O361      2.06980      .   S
    Zr362  O363      1.02404      .   S
    N24    O363      2.06586      .   S
    Zr362  O364      1.04856  1_554   S
    N71    O364      2.11947      .   S
    Zr362  O365      1.04858      .   S
    N74    O365      2.11950      .   S
    Zr362  O366      1.00808      .   S
    N19    O366      2.00128      .   S
    Zr362  O367      1.02403  1_554   S
    N33    O367      2.06587      .   S
    Zr362  O368      1.00807  1_554   S
    N90    O368      2.00125      .   S
    Zr369  O370      1.04664      .   S
    N88    O370      2.09018      .   S
    Zr369  O371      1.00676      .   S
    N5     O371      2.03290      .   S
    Zr369  O372      1.02879      .   S
    N18    O372      2.05865      .   S
    Zr369  O373      1.03868      .   S
    N30    O373      2.08110      .   S
    Zr369  O374      1.02155      .   S
    N34    O374      2.05181      .   S
    Zr369  O375      0.99311      .   S
    N87    O375      2.00133      .   S
    Zr376  O377      1.04848  1_544   S
    N27    O377      2.11932      .   S
    Zr376  O378      1.00802  1_545   S
    N92    O378      2.00120      .   S
    Zr376  O379      1.02402  1_554   S
    N82    O379      2.06587      .   S
    Zr376  O380      1.02404  1_545   S
    N11    O380      2.06585      .   S
    Zr376  O381      1.00808  1_554   S
    N3     O381      2.00128      .   S
    Zr376  O382      1.04859      .   S
    N60    O382      2.11952      .   S
    Zr383  O384      1.02655  1_554   S
    N16    O384      2.06880      .   S
    Zr383  O385      1.03199  1_554   S
    N21    O385      2.07919      .   S
    Zr383  O386      1.03183      .   S
    N51    O386      2.07916      .   S
    Zr383  O387      1.02657      .   S
    N23    O387      2.06882      .   S
    Zr383  O388      1.01114      .   S
    N74    O388      2.00831      .   S
    Zr383  O389      1.01116  1_554   S
    N27    O389      2.00835      .   S
    Zr390  O391      1.04879      .   S
    N48    O391      2.11988      .   S
    Zr390  O392      1.02422      .   S
    N26    O392      2.06626      .   S
    Zr390  O393      1.00737      .   S
    N79    O393      1.99996      .   S
    Zr390  O394      1.04878      .   S
    N32    O394      2.11987      .   S
    Zr390  O395      1.02423      .   S
    N2     O395      2.06631      .   S
    Zr390  O396      1.00737      .   S
    N58    O396      1.99994      .   S
    Zr397  O398      1.04896  1_655   S
    N17    O398      2.11458      .   S
    Zr397  O399      0.99772      .   S
    N86    O399      2.01158  1_456   S
    Zr397  O400      1.03467      .   S
    N56    O400      2.08346  1_455   S
    Zr397  O401      1.05329      .   S
    N85    O401      2.11810      .   S
    Zr397  O402      1.04750      .   S
    N40    O402      2.10844      .   S
    Zr397  O403      1.01895      .   S
    N93    O403      2.05502      .   S
    Zr404  O405      0.99312      .   S
    N40    O405      2.00137  1_655   S
    Zr404  O406      1.04635      .   S
    N17    O406      2.08961      .   S
    Zr404  O407      1.03851      .   S
    N7     O407      2.08086      .   S
    Zr404  O408      1.02202      .   S
    N56    O408      2.05287      .   S
    Zr404  O409      1.00638      .   S
    N36    O409      2.03216      .   S
    Zr404  O410      1.02976      .   S
    N14    O410      2.06048      .   S
    Zr411  O412      1.04845      .   S
    N4     O412      2.11359      .   S
    Zr411  O413      1.05310      .   S
    N64    O413      2.11787      .   S
    Zr411  O414      1.04772      .   S
    N83    O414      2.10901      .   S
    Zr411  O415      1.03492      .   S
    N42    O415      2.08400      .   S
    Zr411  O416      1.01924      .   S
    N29    O416      2.05563      .   S
    Zr411  O417      0.99748      .   S
    N35    O417      2.01120      .   S
    Zr418  O419      1.01081  1_545   S
    N35    O419      2.00774      .   S
    Zr418  O420      1.02707      .   S
    N78    O420      2.06979      .   S
    Zr418  O421      1.03198      .   S
    N42    O421      2.07920  1_565   S
    Zr418  O422      1.02700  1_545   S
    N64    O422      2.06968      .   S
    Zr418  O423      1.03197  1_545   S
    N13    O423      2.07921  1_545   S
    Zr418  O424      1.01091      .   S
    N46    O424      2.00789      .   S
    Zr425  O426      1.04635      .   S
    N33    O426      2.08963      .   S
    Zr425  O427      1.03846      .   S
    N87    O427      2.08068      .   S
    Zr425  O428      0.99296      .   S
    N89    O428      2.00110      .   S
    Zr425  O429      1.00641      .   S
    N73    O429      2.03224      .   S
    Zr425  O430      1.02201      .   S
    N21    O430      2.05280      .   S
    Zr425  O431      1.02973      .   S
    N55    O431      2.06046      .   S
