# CIF file generated by openbabel 2.4.90, see http://openbabel.sf.net
data_I
_chemical_name_common ''
_cell_length_a 14.308
_cell_length_b 15.844
_cell_length_c 15.845
_cell_angle_alpha 78.291
_cell_angle_beta 63.23
_cell_angle_gamma 63.229
_space_group_name_H-M_alt 'P 1'
_space_group_name_Hall 'P 1'
loop_
    _symmetry_equiv_pos_as_xyz
    x,y,z
loop_
    _atom_site_label
    _atom_site_type_symbol
    _atom_site_fract_x
    _atom_site_fract_y
    _atom_site_fract_z
    _atom_site_occupancy
    Zr0     Zr   0.53510   0.99954   0.42965   1.000
    Zr1     Zr   0.96536   0.99960   0.56946   1.000
    Zr2     Zr   0.03510   0.42979   0.99945   1.000
    Zr3     Zr   0.46538   0.56957   0.99950   1.000
    Zr4     Zr   0.23660   0.02678   0.49994   1.000
    Zr5     Zr   0.76299   0.97355   0.49977   1.000
    Zr6     Zr   0.26293   0.49993   0.97345   1.000
    Zr7     Zr   0.73658   0.50007   0.02672   1.000
    N8      N    0.40275   0.29461   0.26004   1.000
    O9      O    0.34237   0.36838   0.14387   1.000
    O10     O    0.41409   0.40810   0.15042   1.000
    O11     O    0.35213   0.17829   0.35916   1.000
    O12     O    0.42675   0.17148   0.34159   1.000
    N13     N    0.33725   0.26006   0.70490   1.000
    O14     O    0.43539   0.15043   0.59137   1.000
    O15     O    0.28867   0.35908   0.82149   1.000
    O16     O    0.23171   0.34154   0.82799   1.000
    O17     O    0.51344   0.14378   0.63131   1.000
    N18     N    0.90237   0.26014   0.29452   1.000
    O19     O    0.84219   0.14398   0.36825   1.000
    O20     O    0.85193   0.35926   0.17821   1.000
    O21     O    0.92656   0.34169   0.17139   1.000
    O22     O    0.91389   0.15049   0.40800   1.000
    N23     N    0.83721   0.70499   0.25998   1.000
    O24     O    0.93542   0.59146   0.15033   1.000
    O25     O    0.78868   0.82159   0.35896   1.000
    O26     O    0.73170   0.82809   0.34143   1.000
    O27     O    0.01340   0.63145   0.14369   1.000
    N28     N    0.45712   0.73977   0.70543   1.000
    O29     O    0.38921   0.64065   0.82175   1.000
    O30     O    0.43982   0.65807   0.82826   1.000
    O31     O    0.35463   0.85622   0.63160   1.000
    O32     O    0.47280   0.84907   0.59163   1.000
    N33     N    0.30286   0.73981   0.29424   1.000
    O34     O    0.46970   0.64073   0.17806   1.000
    O35     O    0.40190   0.65810   0.17125   1.000
    O36     O    0.28920   0.85614   0.36816   1.000
    O37     O    0.17805   0.84923   0.40781   1.000
    N38     N    0.95708   0.70555   0.73970   1.000
    O39     O    0.97275   0.59177   0.84901   1.000
    O40     O    0.88920   0.82186   0.64057   1.000
    O41     O    0.93979   0.82837   0.65799   1.000
    O42     O    0.85458   0.63177   0.85618   1.000
    N43     N    0.80289   0.29432   0.73972   1.000
    O44     O    0.67807   0.40789   0.84914   1.000
    O45     O    0.96973   0.17813   0.64062   1.000
    O46     O    0.90192   0.17134   0.65800   1.000
    O47     O    0.78921   0.36827   0.85606   1.000
loop_
    _geom_bond_atom_site_label_1
    _geom_bond_atom_site_label_2
    _geom_bond_distance
    _geom_bond_site_symmetry_2
    _ccdc_geom_bond_type
    N8     O9        2.26938      .   S
    Zr6    O9        3.35770  1_556   S
    N8     O10       2.24010      .   S
    Zr3    O10       3.22934  1_556   S
    N8     O11       2.32177      .   S
    Zr4    O11       3.39863      .   S
    N8     O12       2.08957      .   S
    Zr0    O12       2.89367  1_565   S
    N13    O14       2.24062      .   S
    Zr0    O14       3.23078  1_565   S
    N13    O15       2.32251      .   S
    Zr6    O15       3.39929      .   S
    N13    O16       2.08884      .   S
    Zr2    O16       2.89195      .   S
    N13    O17       2.26915      .   S
    Zr5    O17       3.35715  1_565   S
    N18    O19       2.26760      .   S
    Zr5    O19       3.35618  1_565   S
    N18    O20       2.32076      .   S
    Zr7    O20       3.39724      .   S
    N18    O21       2.08973      .   S
    Zr2    O21       2.89485  1_456   S
    N18    O22       2.24040      .   S
    Zr1    O22       3.22983  1_565   S
    N23    O24       2.24074      .   S
    Zr2    O24       3.23017  1_456   S
    N23    O25       2.32244      .   S
    Zr5    O25       3.39922      .   S
    N23    O26       2.08867      .   S
    Zr0    O26       2.89163      .   S
    N23    O27       2.26904  1_655   S
    Zr6    O27       3.35703  1_556   S
    N28    O29       2.32244      .   S
    Zr6    O29       3.39935      .   S
    N28    O30       2.08739      .   S
    Zr3    O30       2.88952      .   S
    N28    O31       2.27040      .   S
    Zr4    O31       3.35866  1_545   S
    N28    O32       2.24026      .   S
    Zr0    O32       3.23043      .   S
    N33    O34       2.32172      .   S
    Zr7    O34       3.39885      .   S
    N33    O35       2.08938      .   S
    Zr3    O35       2.89378  1_556   S
    N33    O36       2.26982      .   S
    Zr4    O36       3.35841  1_545   S
    N33    O37       2.23944      .   S
    Zr1    O37       3.22821  1_655   S
    N38    O39       2.24015      .   S
    Zr2    O39       3.23022  1_455   S
    N38    O40       2.32248      .   S
    Zr5    O40       3.39958      .   S
    N38    O41       2.08733      .   S
    Zr1    O41       2.88945      .   S
    N38    O42       2.27027      .   S
    Zr7    O42       3.35881  1_554   S
    N43    O44       2.23948      .   S
    Zr3    O44       3.22834      .   S
    N43    O45       2.32184      .   S
    Zr4    O45       3.39898  1_455   S
    N43    O46       2.08933      .   S
    Zr1    O46       2.89366  1_565   S
    N43    O47       2.27018      .   S
    Zr7    O47       3.35876  1_554   S
