# CIF file generated by openbabel 2.4.90, see http://openbabel.sf.net
data_I
_chemical_name_common ''
_cell_length_a 18.405
_cell_length_b 18.418
_cell_length_c 18.418
_cell_angle_alpha 60.252
_cell_angle_beta 60.269
_cell_angle_gamma 60.269
_space_group_name_H-M_alt 'P 1'
_space_group_name_Hall 'P 1'
loop_
    _symmetry_equiv_pos_as_xyz
    x,y,z
loop_
    _atom_site_label
    _atom_site_type_symbol
    _atom_site_fract_x
    _atom_site_fract_y
    _atom_site_fract_z
    _atom_site_occupancy
    H0      H    0.45132   0.45127   0.93220   1.000
    H1      H    0.45252   0.45245   0.16420   1.000
    H2      H    0.93189   0.16422   0.45180   1.000
    H3      H    0.16434   0.93200   0.45170   1.000
    H4      H    0.45182   0.93190   0.16423   1.000
    H5      H    0.45181   0.16422   0.93193   1.000
    H6      H    0.93202   0.45139   0.45139   1.000
    H7      H    0.16432   0.45245   0.45245   1.000
    H8      H    0.45253   0.16420   0.45245   1.000
    H9      H    0.45133   0.93217   0.45128   1.000
    H10     H    0.93188   0.45180   0.16422   1.000
    H11     H    0.16434   0.45169   0.93202   1.000
    H12     H    0.54870   0.54869   0.06779   1.000
    H13     H    0.54750   0.54751   0.83578   1.000
    H14     H    0.83568   0.06796   0.54829   1.000
    H15     H    0.06813   0.83574   0.54819   1.000
    H16     H    0.06814   0.54816   0.83576   1.000
    H17     H    0.83568   0.54827   0.06796   1.000
    H18     H    0.54869   0.06779   0.54870   1.000
    H19     H    0.54750   0.83576   0.54750   1.000
    H20     H    0.83570   0.54751   0.54754   1.000
    H21     H    0.06800   0.54858   0.54800   1.000
    H22     H    0.54820   0.06806   0.83576   1.000
    H23     H    0.54821   0.83574   0.06805   1.000
    C24     C    0.47303   0.47298   0.96114   1.000
    C25     C    0.47372   0.47366   0.09227   1.000
    C26     C    0.96094   0.09228   0.47331   1.000
    C27     C    0.09235   0.96098   0.47325   1.000
    C28     C    0.47332   0.96094   0.09228   1.000
    C29     C    0.47332   0.09227   0.96097   1.000
    C30     C    0.96106   0.47304   0.47306   1.000
    C31     C    0.09234   0.47365   0.47360   1.000
    C32     C    0.47369   0.09226   0.47369   1.000
    C33     C    0.47301   0.96112   0.47300   1.000
    C34     C    0.96093   0.47328   0.09228   1.000
    C35     C    0.09236   0.47322   0.96101   1.000
    C36     C    0.52699   0.52698   0.03884   1.000
    C37     C    0.52630   0.52630   0.90772   1.000
    C38     C    0.90766   0.03898   0.52673   1.000
    C39     C    0.03908   0.90768   0.52668   1.000
    C40     C    0.03908   0.52668   0.90770   1.000
    C41     C    0.90766   0.52674   0.03898   1.000
    C42     C    0.52701   0.03884   0.52696   1.000
    C43     C    0.52633   0.90770   0.52629   1.000
    C44     C    0.90768   0.52632   0.52632   1.000
    C45     C    0.03896   0.52692   0.52693   1.000
    C46     C    0.52670   0.03902   0.90770   1.000
    C47     C    0.52670   0.90769   0.03902   1.000
    C48     C    0.38906   0.38897   0.11117   1.000
    C49     C    0.44638   0.44632   0.05377   1.000
    C50     C    0.11091   0.11093   0.38860   1.000
    C51     C    0.05361   0.05362   0.44620   1.000
    C52     C    0.38878   0.11088   0.11088   1.000
    C53     C    0.44624   0.05359   0.05359   1.000
    C54     C    0.11113   0.38902   0.38905   1.000
    C55     C    0.05375   0.44638   0.44630   1.000
    C56     C    0.38904   0.11116   0.38900   1.000
    C57     C    0.44643   0.05376   0.44628   1.000
    C58     C    0.11091   0.38867   0.11094   1.000
    C59     C    0.05360   0.44622   0.05363   1.000
    C60     C    0.61095   0.61100   0.88880   1.000
    C61     C    0.55364   0.55363   0.94622   1.000
    C62     C    0.88911   0.88903   0.61130   1.000
    C63     C    0.94641   0.94634   0.55379   1.000
    C64     C    0.88911   0.61129   0.88905   1.000
    C65     C    0.94642   0.55374   0.94636   1.000
    C66     C    0.61098   0.88880   0.61099   1.000
    C67     C    0.55359   0.94620   0.55370   1.000
    C68     C    0.88889   0.61094   0.61094   1.000
    C69     C    0.94627   0.55359   0.55360   1.000
    C70     C    0.61124   0.88909   0.88910   1.000
    C71     C    0.55377   0.94637   0.94639   1.000
    O72     O    0.25003   0.25002   0.25000   1.000
    O73     O    0.74999   0.74994   0.74996   1.000
    O74     O    0.36673   0.36665   0.07161   1.000
    O75     O    0.36722   0.36706   0.19492   1.000
    O76     O    0.07134   0.19465   0.36640   1.000
    O77     O    0.19468   0.07140   0.36650   1.000
    O78     O    0.36658   0.07133   0.19461   1.000
    O79     O    0.36658   0.19460   0.07130   1.000
    O80     O    0.07151   0.36673   0.36673   1.000
    O81     O    0.19494   0.36714   0.36713   1.000
    O82     O    0.36722   0.19491   0.36706   1.000
    O83     O    0.36674   0.07160   0.36665   1.000
    O84     O    0.07134   0.36646   0.19466   1.000
    O85     O    0.19467   0.36650   0.07141   1.000
    O86     O    0.63329   0.63331   0.92838   1.000
    O87     O    0.63280   0.63291   0.80507   1.000
    O88     O    0.80534   0.92856   0.63349   1.000
    O89     O    0.92868   0.80531   0.63352   1.000
    O90     O    0.92868   0.63350   0.80533   1.000
    O91     O    0.80535   0.63345   0.92858   1.000
    O92     O    0.63328   0.92836   0.63334   1.000
    O93     O    0.63280   0.80505   0.63292   1.000
    O94     O    0.80508   0.63282   0.63286   1.000
    O95     O    0.92851   0.63323   0.63326   1.000
    O96     O    0.63344   0.92863   0.80538   1.000
    O97     O    0.63343   0.80536   0.92864   1.000
loop_
    _geom_bond_atom_site_label_1
    _geom_bond_atom_site_label_2
    _geom_bond_distance
    _geom_bond_site_symmetry_2
    _ccdc_geom_bond_type
    C36    H12       1.08869      .   S
    C36    C25       1.39036      .   S
    C36    C61       1.40337  1_554   S
    C41    H17       1.08858      .   S
    C41    C34       1.39010      .   S
    C41    C65       1.40327  1_554   S
    C47    H23       1.08859      .   S
    C47    C28       1.39022      .   S
    C47    C71       1.40330  1_554   S
    C53    C28       1.40357  1_545   S
    C53    C52       1.49542      .   S
    C53    C29       1.40315  1_554   S
    C59    C34       1.40315  1_455   S
    C59    C58       1.49504      .   S
    C59    C35       1.40327  1_554   S
    C49    C25       1.40317      .   S
    C49    C48       1.49577      .   S
    C49    C24       1.40353  1_554   S
    O79    C52       1.27722      .   S
    O85    C58       1.27707      .   S
    O74    C48       1.27695      .   S
    C25    H1        1.08851      .   S
    C28    H4        1.08866      .   S
    C34    H10       1.08855      .   S
    C52    O78       1.27717      .   S
    C58    O84       1.27713      .   S
    C48    O75       1.27747      .   S
    O76    C50       1.27709      .   S
    O77    C50       1.27706      .   S
    O83    C56       1.27700      .   S
    O80    C54       1.27707      .   S
    O82    C56       1.27739      .   S
    O81    C54       1.27746      .   S
    C50    C51       1.49510      .   S
    C56    C57       1.49576      .   S
    C54    C55       1.49584      .   S
    C51    C27       1.40353  1_545   S
    C51    C26       1.40315  1_455   S
    C57    C33       1.40380  1_545   S
    C57    C32       1.40309      .   S
    C55    C30       1.40342  1_455   S
    C55    C31       1.40280      .   S
    H9     C33       1.08825      .   S
    H6     C30       1.08858      .   S
    H3     C27       1.08859      .   S
    H2     C26       1.08858      .   S
    H8     C32       1.08863      .   S
    H7     C31       1.08872      .   S
    C33    C43       1.39067      .   S
    C30    C44       1.39053      .   S
    C27    C39       1.39014      .   S
    C26    C38       1.39015      .   S
    C31    C45       1.39143      .   S
    C32    C42       1.39041      .   S
    C43    H19       1.08865      .   S
    C43    C67       1.40314      .   S
    C44    H20       1.08864      .   S
    C44    C69       1.40255      .   S
    C39    H15       1.08859      .   S
    C39    C63       1.40317  1_455   S
    C38    H14       1.08859      .   S
    C38    C63       1.40352  1_545   S
    C45    H21       1.07988      .   S
    C45    C69       1.40353  1_455   S
    C42    H18       1.08855      .   S
    C42    C67       1.40377  1_545   S
    C69    C68       1.49691      .   S
    C67    C66       1.49583      .   S
    C63    C62       1.49507      .   S
    C68    O94       1.27746      .   S
    C68    O95       1.27709      .   S
    C66    O93       1.27742      .   S
    C66    O92       1.27698      .   S
    C62    O88       1.27708      .   S
    C62    O89       1.27709      .   S
    O87    C60       1.27714      .   S
    O90    C64       1.27713      .   S
    O96    C70       1.27703      .   S
    H16    C40       1.08855      .   S
    H22    C46       1.08852      .   S
    H13    C37       1.08867      .   S
    C60    O86       1.27728      .   S
    C60    C61       1.49579      .   S
    C64    O91       1.27707      .   S
    C64    C65       1.49504      .   S
    C70    O97       1.27714      .   S
    C70    C71       1.49542      .   S
    C46    C71       1.40357  1_545   S
    C46    C29       1.39035      .   S
    C40    C65       1.40317  1_455   S
    C40    C35       1.39023      .   S
    C37    C61       1.40314      .   S
    C37    C24       1.39036      .   S
    H5     C29       1.08860      .   S
    H11    C35       1.08859      .   S
    H0     C24       1.08855      .   S
