# CIF file generated by openbabel 2.4.90, see http://openbabel.sf.net
data_I
_chemical_name_common ''
_cell_length_a 18.405
_cell_length_b 18.418
_cell_length_c 18.418
_cell_angle_alpha 60.252
_cell_angle_beta 60.269
_cell_angle_gamma 60.269
_space_group_name_H-M_alt 'P 1'
_space_group_name_Hall 'P 1'
loop_
    _symmetry_equiv_pos_as_xyz
    x,y,z
loop_
    _atom_site_label
    _atom_site_type_symbol
    _atom_site_fract_x
    _atom_site_fract_y
    _atom_site_fract_z
    _atom_site_occupancy
    Zr0     Zr   0.29327   0.29310   0.11967   1.000
    Zr1     Zr   0.29377   0.29376   0.29376   1.000
    Zr2     Zr   0.11959   0.29324   0.29324   1.000
    Zr3     Zr   0.29327   0.11966   0.29311   1.000
    Zr4     Zr   0.70675   0.70686   0.88032   1.000
    Zr5     Zr   0.70625   0.70620   0.70620   1.000
    Zr6     Zr   0.70675   0.88030   0.70688   1.000
    Zr7     Zr   0.88043   0.70672   0.70674   1.000
    N8      N    0.00001   0.49998   0.99999   1.000
    O9      O    0.95228   0.58505   0.87801   1.000
    O10     O    0.87803   0.58507   0.95222   1.000
    O11     O    0.12199   0.41489   0.04777   1.000
    O12     O    0.04774   0.41491   0.12197   1.000
    N13     N    0.50001   0.99998   0.49999   1.000
    O14     O    0.58477   0.87780   0.58477   1.000
    O15     O    0.41501   0.04781   0.41493   1.000
    O16     O    0.58501   0.95215   0.58505   1.000
    O17     O    0.41525   0.12216   0.41520   1.000
    N18     N    0.00001   0.99998   0.49998   1.000
    O19     O    0.12199   0.04776   0.41489   1.000
    O20     O    0.95228   0.87800   0.58506   1.000
    O21     O    0.87803   0.95220   0.58508   1.000
    O22     O    0.04774   0.12196   0.41490   1.000
    N23     N    0.50001   0.49998   0.99999   1.000
    O24     O    0.41525   0.41519   0.12217   1.000
    O25     O    0.58477   0.58477   0.87781   1.000
    O26     O    0.41500   0.41493   0.04782   1.000
    O27     O    0.58502   0.58503   0.95217   1.000
    N28     N    0.00001   0.49998   0.49995   1.000
    O29     O    0.87784   0.58475   0.58474   1.000
    O30     O    0.12218   0.41521   0.41520   1.000
    O31     O    0.04778   0.41498   0.41497   1.000
    O32     O    0.95224   0.58498   0.58497   1.000
    N33     N    0.50001   0.99998   0.99999   1.000
    O34     O    0.58505   0.87804   0.95223   1.000
    O35     O    0.41497   0.04774   0.12192   1.000
    O36     O    0.41497   0.12192   0.04774   1.000
    O37     O    0.58505   0.95222   0.87806   1.000
    N38     N    0.25003   0.25002   0.25000   1.000
    O39     O    0.26084   0.21743   0.26078   1.000
    O40     O    0.26096   0.26095   0.26094   1.000
    O41     O    0.21742   0.26082   0.26081   1.000
    O42     O    0.26084   0.26079   0.21742   1.000
    N43     N    0.74999   0.74994   0.74996   1.000
    O44     O    0.73906   0.73901   0.73902   1.000
    O45     O    0.73918   0.73917   0.78255   1.000
    O46     O    0.78260   0.73914   0.73916   1.000
    O47     O    0.73918   0.78253   0.73919   1.000
loop_
    _geom_bond_atom_site_label_1
    _geom_bond_atom_site_label_2
    _geom_bond_distance
    _geom_bond_site_symmetry_2
    _ccdc_geom_bond_type
    N8     O9        2.31796  1_455   S
    Zr7    O9        3.30226      .   S
    N8     O10       2.31768  1_455   S
    Zr4    O10       3.30185      .   S
    N8     O11       2.31769  1_556   S
    Zr0    O11       3.30187      .   S
    N8     O12       2.31795  1_556   S
    Zr2    O12       3.30218      .   S
    N13    O14       2.32013      .   S
    Zr5    O14       3.30547      .   S
    N13    O15       2.31777  1_565   S
    Zr3    O15       3.30216      .   S
    N13    O16       2.31786      .   S
    Zr6    O16       3.30226      .   S
    N13    O17       2.32016  1_565   S
    Zr1    O17       3.30561      .   S
    N18    O19       2.31773  1_565   S
    Zr3    O19       3.30192      .   S
    N18    O20       2.31801  1_455   S
    Zr7    O20       3.30230      .   S
    N18    O21       2.31773  1_455   S
    Zr6    O21       3.30191      .   S
    N18    O22       2.31801  1_565   S
    Zr2    O22       3.30229      .   S
    N23    O24       2.32012  1_556   S
    Zr1    O24       3.30556      .   S
    N23    O25       2.32015      .   S
    Zr5    O25       3.30567      .   S
    N23    O26       2.31778  1_556   S
    Zr0    O26       3.30218      .   S
    N23    O27       2.31780      .   S
    Zr4    O27       3.30220      .   S
    N28    O29       2.32098  1_455   S
    Zr5    O29       3.30663      .   S
    N28    O30       2.32060      .   S
    Zr1    O30       3.30639      .   S
    N28    O31       2.31841      .   S
    Zr2    O31       3.30324      .   S
    N28    O32       2.31907  1_455   S
    Zr7    O32       3.30383      .   S
    N33    O34       2.31850      .   S
    Zr4    O34       3.30291      .   S
    N33    O35       2.31852  1_566   S
    Zr3    O35       3.30298      .   S
    N33    O36       2.31843  1_566   S
    Zr0    O36       3.30310      .   S
    N33    O37       2.31844      .   S
    Zr6    O37       3.30290      .   S
    N38    O39       0.49168      .   S
    Zr3    O39       1.47504      .   S
    N38    O40       0.49227      .   S
    Zr1    O40       1.47682      .   S
    N38    O41       0.49172      .   S
    Zr2    O41       1.47517      .   S
    N38    O42       0.49158      .   S
    Zr0    O42       1.47473      .   S
    N43    O44       0.49227      .   S
    Zr5    O44       1.47682      .   S
    N43    O45       0.49169      .   S
    Zr4    O45       1.47507      .   S
    N43    O46       0.49172      .   S
    Zr7    O46       1.47517      .   S
    N43    O47       0.49168      .   S
    Zr6    O47       1.47504      .   S
