# CIF file generated by openbabel 2.4.90, see http://openbabel.sf.net
data_I
_chemical_name_common ''
_cell_length_a 23.047
_cell_length_b 15.562
_cell_length_c 16.219
_cell_angle_alpha 89.978
_cell_angle_beta 89.974
_cell_angle_gamma 90.074
_space_group_name_H-M_alt 'P 1'
_space_group_name_Hall 'P 1'
loop_
    _symmetry_equiv_pos_as_xyz
    x,y,z
loop_
    _atom_site_label
    _atom_site_type_symbol
    _atom_site_fract_x
    _atom_site_fract_y
    _atom_site_fract_z
    _atom_site_occupancy
    C0      C    0.98979   0.20903   0.51202   1.000
    C1      C    0.24408   0.73379   0.54466   1.000
    C2      C    0.74394   0.73343   0.54474   1.000
    C3      C    0.26819   0.76607   0.46118   1.000
    C4      C    0.76812   0.76474   0.46102   1.000
    C5      C    0.12772   0.82855   0.25054   1.000
    C6      C    0.62782   0.82837   0.25074   1.000
    C7      C    0.12989   0.72999   0.24247   1.000
    C8      C    0.62991   0.72982   0.24248   1.000
    C9      C    0.23833   0.70040   0.98861   1.000
    C10     C    0.73834   0.70038   0.98865   1.000
    C11     C    0.26037   0.79100   0.01147   1.000
    C12     C    0.76038   0.79097   0.01151   1.000
    C13     C    0.50596   0.26663   0.04479   1.000
    C14     C    0.00000   0.26663   0.04478   1.000
    C15     C    0.48185   0.23525   0.96107   1.000
    C16     C    0.98186   0.23526   0.96106   1.000
    C17     C    0.12236   0.17175   0.75066   1.000
    C18     C    0.62227   0.17155   0.75074   1.000
    C19     C    0.12019   0.27030   0.74234   1.000
    C20     C    0.62014   0.27011   0.74245   1.000
    C21     C    0.01177   0.29957   0.48877   1.000
    C22     C    0.51199   0.30070   0.48909   1.000
    C23     C    0.48994   0.20980   0.51124   1.000
    O24     O    0.57219   0.71890   0.54160   1.000
    O25     O    0.48221   0.72548   0.59700   1.000
    O26     O    0.98222   0.72572   0.59732   1.000
    O27     O    0.38184   0.63834   0.67903   1.000
    O28     O    0.88053   0.63786   0.67924   1.000
    O29     O    0.37333   0.62942   0.81640   1.000
    O30     O    0.87298   0.62938   0.81668   1.000
    O31     O    0.38014   0.79939   0.83000   1.000
    C32     C    0.25589   0.23380   0.95529   1.000
    C33     C    0.75591   0.23375   0.95535   1.000
    C34     C    0.23183   0.26607   0.03877   1.000
    C35     C    0.73185   0.26606   0.03881   1.000
    C36     C    0.37253   0.32864   0.24938   1.000
    C37     C    0.87257   0.32843   0.24950   1.000
    C38     C    0.37021   0.23008   0.25755   1.000
    C39     C    0.87024   0.22986   0.25759   1.000
    C40     C    0.26188   0.20049   0.51121   1.000
    C41     C    0.76173   0.19953   0.51111   1.000
    C42     C    0.23994   0.29097   0.48798   1.000
    C43     C    0.73993   0.29041   0.48884   1.000
    C44     C    0.99407   0.76665   0.45534   1.000
    C45     C    0.49412   0.76616   0.45522   1.000
    C46     C    0.01814   0.73522   0.53905   1.000
    C47     C    0.51810   0.73389   0.53871   1.000
    C48     C    0.37773   0.67176   0.74924   1.000
    C49     C    0.87709   0.67156   0.74941   1.000
    C50     C    0.37989   0.77032   0.75748   1.000
    C51     C    0.87974   0.77012   0.75742   1.000
    C52     C    0.48845   0.80019   0.01110   1.000
    C53     C    0.98846   0.80032   0.01109   1.000
    C54     C    0.01029   0.70949   0.98876   1.000
    C55     C    0.51029   0.70939   0.98878   1.000
    O56     O    0.18959   0.72210   0.54839   1.000
    O57     O    0.68941   0.72215   0.54858   1.000
    O58     O    0.28047   0.72255   0.60201   1.000
    O59     O    0.78032   0.72245   0.60214   1.000
    O60     O    0.32230   0.78108   0.45830   1.000
    O61     O    0.82242   0.77805   0.45773   1.000
    O62     O    0.23236   0.77455   0.40270   1.000
    O63     O    0.73224   0.77420   0.40275   1.000
    O64     O    0.13198   0.86218   0.32064   1.000
    O65     O    0.63209   0.86182   0.32092   1.000
    O66     O    0.12319   0.87078   0.18335   1.000
    O67     O    0.62333   0.87071   0.18360   1.000
    O68     O    0.13015   0.70085   0.16993   1.000
    O69     O    0.63016   0.70078   0.16991   1.000
    O70     O    0.13249   0.68854   0.31015   1.000
    O71     O    0.63249   0.68824   0.31008   1.000
    O72     O    0.27578   0.65082   0.95464   1.000
    O73     O    0.77580   0.65079   0.95471   1.000
    O74     O    0.18709   0.68131   0.00717   1.000
    O75     O    0.68710   0.68128   0.00721   1.000
    O76     O    0.22470   0.83708   0.05195   1.000
    O77     O    0.72471   0.83706   0.05196   1.000
    O78     O    0.31123   0.81087   0.99067   1.000
    O79     O    0.81124   0.81086   0.99071   1.000
    O80     O    0.06050   0.27788   0.04858   1.000
    O81     O    0.56050   0.27783   0.04860   1.000
    O82     O    0.46955   0.27768   0.10217   1.000
    O83     O    0.96958   0.27763   0.10219   1.000
    O84     O    0.42755   0.22191   0.95782   1.000
    O85     O    0.92757   0.22190   0.95782   1.000
    O86     O    0.01775   0.22582   0.90278   1.000
    O87     O    0.51776   0.22578   0.90279   1.000
    O88     O    0.11798   0.13837   0.82089   1.000
    O89     O    0.61796   0.13812   0.82096   1.000
    O90     O    0.12703   0.12941   0.68358   1.000
    O91     O    0.62683   0.12923   0.68362   1.000
    O92     O    0.11997   0.29933   0.66973   1.000
    O93     O    0.61990   0.29914   0.66986   1.000
    O94     O    0.11754   0.31188   0.80990   1.000
    O95     O    0.61756   0.31169   0.81002   1.000
    O96     O    0.47453   0.35092   0.45595   1.000
    O97     O    0.97432   0.34902   0.45467   1.000
    O98     O    0.06300   0.31879   0.50715   1.000
    O99     O    0.56336   0.31922   0.50737   1.000
    O100    O    0.02561   0.16295   0.55217   1.000
    O101    O    0.52546   0.16341   0.55168   1.000
    O102    O    0.43923   0.18979   0.48990   1.000
    O103    O    0.93881   0.18917   0.49193   1.000
    O104    O    0.31037   0.22208   0.95157   1.000
    O105    O    0.81038   0.22208   0.95160   1.000
    O106    O    0.21950   0.22265   0.89790   1.000
    O107    O    0.71950   0.22255   0.89799   1.000
    O108    O    0.17775   0.28109   0.04165   1.000
    O109    O    0.67776   0.28107   0.04169   1.000
    O110    O    0.26767   0.27448   0.09727   1.000
    O111    O    0.76769   0.27450   0.09731   1.000
    O112    O    0.36831   0.36221   0.17922   1.000
    O113    O    0.86854   0.36205   0.17934   1.000
    O114    O    0.37715   0.37090   0.31651   1.000
    O115    O    0.87702   0.37063   0.31668   1.000
    O116    O    0.36993   0.20100   0.33013   1.000
    O117    O    0.86999   0.20067   0.33014   1.000
    O118    O    0.36748   0.18857   0.18994   1.000
    O119    O    0.86749   0.18844   0.18994   1.000
    O120    O    0.22431   0.15098   0.54530   1.000
    O121    O    0.72415   0.14951   0.54448   1.000
    O122    O    0.31309   0.18132   0.49284   1.000
    O123    O    0.81302   0.18073   0.49270   1.000
    O124    O    0.27580   0.33706   0.44768   1.000
    O125    O    0.77563   0.33662   0.44836   1.000
    O126    O    0.18902   0.31082   0.50824   1.000
    O127    O    0.68924   0.31052   0.51006   1.000
    O128    O    0.43964   0.77790   0.45148   1.000
    O129    O    0.93958   0.77791   0.45149   1.000
    O130    O    0.03052   0.77768   0.39790   1.000
    O131    O    0.53054   0.77735   0.39784   1.000
    O132    O    0.07241   0.72184   0.54200   1.000
    O133    O    0.88020   0.79931   0.82994   1.000
    O134    O    0.38251   0.81189   0.68987   1.000
    O135    O    0.88252   0.81149   0.68970   1.000
    O136    O    0.02599   0.85031   0.04447   1.000
    O137    O    0.52600   0.85010   0.04468   1.000
    O138    O    0.43720   0.81907   0.99268   1.000
    O139    O    0.93718   0.81911   0.99268   1.000
    O140    O    0.47460   0.66323   0.94830   1.000
    O141    O    0.97462   0.66328   0.94833   1.000
    O142    O    0.06100   0.68944   0.00995   1.000
    O143    O    0.56100   0.68934   0.00995   1.000
loop_
    _geom_bond_atom_site_label_1
    _geom_bond_atom_site_label_2
    _geom_bond_distance
    _geom_bond_site_symmetry_2
    _ccdc_geom_bond_type
    O74    C9        1.25385  1_554   S
    O75    C10       1.25384  1_554   S
    O143   C55       1.25791  1_554   S
    O142   C54       1.25799  1_554   S
    C53    O136      1.28273  1_655   S
    C53    C54       1.54402  1_654   S
    C53    O139      1.25419  1_554   S
    C52    O137      1.28363      .   S
    C52    C55       1.54370  1_554   S
    C52    O138      1.25388  1_554   S
    C11    O76       1.27381      .   S
    C11    C9        1.54332  1_554   S
    C11    O78       1.25787  1_554   S
    C12    O77       1.27379      .   S
    C12    C10       1.54325  1_554   S
    C12    O79       1.25784  1_554   S
    C34    O108      1.26931      .   S
    C34    O110      1.26496      .   S
    C34    C32       1.54712  1_554   S
    C35    O109      1.26934      .   S
    C35    O111      1.26510      .   S
    C35    C33       1.54695  1_554   S
    C14    O80       1.40650      .   S
    C14    O83       1.17798  1_455   S
    C14    C16       1.50245  1_454   S
    C13    O81       1.27040      .   S
    C13    O82       1.26485      .   S
    C13    C15       1.54647  1_554   S
    O69    C8        1.26095      .   S
    O68    C7        1.26104      .   S
    O112   C36       1.25580      .   S
    O113   C37       1.25579      .   S
    O66    C5        1.27674      .   S
    O67    C6        1.27686      .   S
    O119   C39       1.27431      .   S
    O118   C38       1.27440      .   S
    C7     C5        1.54031      .   S
    C7     O70       1.27445      .   S
    C8     C6        1.54037      .   S
    C8     O71       1.27433      .   S
    C36    C38       1.54041      .   S
    C36    O114      1.27666      .   S
    C37    C39       1.54041      .   S
    C37    O115      1.27654      .   S
    C5     O64       1.25567      .   S
    C6     O65       1.25567      .   S
    C38    O116      1.26101      .   S
    C39    O117      1.26114      .   S
    O131   C45       1.26491      .   S
    O130   C44       1.26576  1_455   S
    O62    C3        1.26488      .   S
    O63    C4        1.26475      .   S
    O124   C42       1.27374      .   S
    O125   C43       1.27398      .   S
    O128   C45       1.27040      .   S
    O129   C44       1.26970      .   S
    O97    C21       1.28252  1_655   S
    C45    C47       1.54672      .   S
    C44    C46       1.54635  1_655   S
    O96    C22       1.28329      .   S
    O61    C4        1.26931      .   S
    O60    C3        1.26941      .   S
    C4     C2        1.54593      .   S
    C3     C1        1.54668      .   S
    C42    O126      1.25764      .   S
    C42    C40       1.54330      .   S
    C21    O98       1.25374      .   S
    C21    C0        1.54321  1_455   S
    C43    O127      1.25762      .   S
    C43    C41       1.54426      .   S
    C22    O99       1.25394      .   S
    C22    C23       1.54471      .   S
    O102   C23       1.25794      .   S
    O103   C0        1.25761      .   S
    O123   C41       1.25393      .   S
    O122   C40       1.25360      .   S
    C41    O121      1.28314      .   S
    C40    O120      1.28305      .   S
    C23    O101      1.27405      .   S
    C0     O100      1.27345  1_655   S
    C47    O24       1.26934      .   S
    C47    O25       1.26261      .   S
    C46    O132      1.26904      .   S
    C46    O26       1.26459  1_455   S
    C1     O56       1.27030      .   S
    C1     O58       1.26492      .   S
    C2     O57       1.27034      .   S
    C2     O59       1.26489      .   S
    O92    C19       1.26122      .   S
    O93    C20       1.26090      .   S
    O27    C48       1.25568      .   S
    O28    C49       1.25578      .   S
    O90    C17       1.27676      .   S
    O91    C18       1.27694      .   S
    O135   C51       1.27445      .   S
    O134   C50       1.27432      .   S
    C19    C17       1.54031      .   S
    C19    O94       1.27428      .   S
    C20    C18       1.54037      .   S
    C20    O95       1.27438      .   S
    C48    C50       1.54037      .   S
    C48    O29       1.27676      .   S
    C49    C51       1.54047      .   S
    C49    O30       1.27649      .   S
    C17    O88       1.25575      .   S
    C18    O89       1.25576      .   S
    C51    O133      1.26112      .   S
    C50    O31       1.26036      .   S
    O106   C32       1.26507      .   S
    O107   C33       1.26507      .   S
    O86    C16       1.26445  1_455   S
    O87    C15       1.26490      .   S
    O140   C55       1.27400      .   S
    O141   C54       1.27369  1_655   S
    O104   C32       1.27025      .   S
    O105   C33       1.27021      .   S
    O72    C9        1.28287      .   S
    O73    C10       1.28286      .   S
    O85    C16       1.26924      .   S
    O84    C15       1.26926      .   S
