# CIF file generated by openbabel 2.4.90, see http://openbabel.sf.net
data_I
_chemical_name_common ''
_cell_length_a 23.047
_cell_length_b 15.562
_cell_length_c 16.219
_cell_angle_alpha 89.978
_cell_angle_beta 89.974
_cell_angle_gamma 90.074
_space_group_name_H-M_alt 'P 1'
_space_group_name_Hall 'P 1'
loop_
    _symmetry_equiv_pos_as_xyz
    x,y,z
loop_
    _atom_site_label
    _atom_site_type_symbol
    _atom_site_fract_x
    _atom_site_fract_y
    _atom_site_fract_z
    _atom_site_occupancy
    Y0      Y    0.63170   0.76740   0.43370   1.000
    Y1      Y    0.12563   0.79959   0.05070   1.000
    Y2      Y    0.62564   0.79949   0.05085   1.000
    Y3      Y    0.11829   0.23270   0.93364   1.000
    Y4      Y    0.61830   0.23254   0.93373   1.000
    Y5      Y    0.12460   0.20078   0.55068   1.000
    Y6      Y    0.62451   0.20049   0.55080   1.000
    Y7      Y    0.36810   0.26825   0.06636   1.000
    Y8      Y    0.86814   0.26821   0.06600   1.000
    Y9      Y    0.37477   0.29978   0.44920   1.000
    Y10     Y    0.87455   0.29910   0.44943   1.000
    Y11     Y    0.38172   0.73272   0.56626   1.000
    Y12     Y    0.88173   0.73169   0.56628   1.000
    Y13     Y    0.37562   0.70081   0.94917   1.000
    Y14     Y    0.87563   0.70081   0.94928   1.000
    Y15     Y    0.13189   0.76822   0.43366   1.000
    C16     C    0.98979   0.20903   0.51202   1.000
    C17     C    0.24408   0.73379   0.54466   1.000
    C18     C    0.74394   0.73343   0.54474   1.000
    C19     C    0.26819   0.76607   0.46118   1.000
    C20     C    0.76812   0.76474   0.46102   1.000
    C21     C    0.12772   0.82855   0.25054   1.000
    C22     C    0.62782   0.82837   0.25074   1.000
    C23     C    0.12989   0.72999   0.24247   1.000
    C24     C    0.62991   0.72982   0.24248   1.000
    C25     C    0.23833   0.70040   0.98861   1.000
    C26     C    0.73834   0.70038   0.98865   1.000
    C27     C    0.26037   0.79100   0.01147   1.000
    C28     C    0.76038   0.79097   0.01151   1.000
    C29     C    0.50596   0.26663   0.04479   1.000
    C30     C    0.00000   0.26663   0.04478   1.000
    C31     C    0.48185   0.23525   0.96107   1.000
    C32     C    0.98186   0.23526   0.96106   1.000
    C33     C    0.12236   0.17175   0.75066   1.000
    C34     C    0.62227   0.17155   0.75074   1.000
    C35     C    0.12019   0.27030   0.74234   1.000
    C36     C    0.62014   0.27011   0.74245   1.000
    C37     C    0.01177   0.29957   0.48877   1.000
    C38     C    0.51199   0.30070   0.48909   1.000
    C39     C    0.48994   0.20980   0.51124   1.000
    O40     O    0.57219   0.71890   0.54160   1.000
    O41     O    0.48221   0.72548   0.59700   1.000
    O42     O    0.98222   0.72572   0.59732   1.000
    O43     O    0.38184   0.63834   0.67903   1.000
    O44     O    0.88053   0.63786   0.67924   1.000
    O45     O    0.37333   0.62942   0.81640   1.000
    O46     O    0.87298   0.62938   0.81668   1.000
    O47     O    0.38014   0.79939   0.83000   1.000
    C48     C    0.25589   0.23380   0.95529   1.000
    C49     C    0.75591   0.23375   0.95535   1.000
    C50     C    0.23183   0.26607   0.03877   1.000
    C51     C    0.73185   0.26606   0.03881   1.000
    C52     C    0.37253   0.32864   0.24938   1.000
    C53     C    0.87257   0.32843   0.24950   1.000
    C54     C    0.37021   0.23008   0.25755   1.000
    C55     C    0.87024   0.22986   0.25759   1.000
    C56     C    0.26188   0.20049   0.51121   1.000
    C57     C    0.76173   0.19953   0.51111   1.000
    C58     C    0.23994   0.29097   0.48798   1.000
    C59     C    0.73993   0.29041   0.48884   1.000
    C60     C    0.99407   0.76665   0.45534   1.000
    C61     C    0.49412   0.76616   0.45522   1.000
    C62     C    0.01814   0.73522   0.53905   1.000
    C63     C    0.51810   0.73389   0.53871   1.000
    C64     C    0.37773   0.67176   0.74924   1.000
    C65     C    0.87709   0.67156   0.74941   1.000
    C66     C    0.37989   0.77032   0.75748   1.000
    C67     C    0.87974   0.77012   0.75742   1.000
    C68     C    0.48845   0.80019   0.01110   1.000
    C69     C    0.98846   0.80032   0.01109   1.000
    C70     C    0.01029   0.70949   0.98876   1.000
    C71     C    0.51029   0.70939   0.98878   1.000
    O72     O    0.18959   0.72210   0.54839   1.000
    O73     O    0.68941   0.72215   0.54858   1.000
    O74     O    0.28047   0.72255   0.60201   1.000
    O75     O    0.78032   0.72245   0.60214   1.000
    O76     O    0.32230   0.78108   0.45830   1.000
    O77     O    0.82242   0.77805   0.45773   1.000
    O78     O    0.23236   0.77455   0.40270   1.000
    O79     O    0.73224   0.77420   0.40275   1.000
    O80     O    0.13198   0.86218   0.32064   1.000
    O81     O    0.63209   0.86182   0.32092   1.000
    O82     O    0.12319   0.87078   0.18335   1.000
    O83     O    0.62333   0.87071   0.18360   1.000
    O84     O    0.13015   0.70085   0.16993   1.000
    O85     O    0.63016   0.70078   0.16991   1.000
    O86     O    0.13249   0.68854   0.31015   1.000
    O87     O    0.63249   0.68824   0.31008   1.000
    O88     O    0.27578   0.65082   0.95464   1.000
    O89     O    0.77580   0.65079   0.95471   1.000
    O90     O    0.18709   0.68131   0.00717   1.000
    O91     O    0.68710   0.68128   0.00721   1.000
    O92     O    0.22470   0.83708   0.05195   1.000
    O93     O    0.72471   0.83706   0.05196   1.000
    O94     O    0.31123   0.81087   0.99067   1.000
    O95     O    0.81124   0.81086   0.99071   1.000
    O96     O    0.06050   0.27788   0.04858   1.000
    O97     O    0.56050   0.27783   0.04860   1.000
    O98     O    0.46955   0.27768   0.10217   1.000
    O99     O    0.96958   0.27763   0.10219   1.000
    O100    O    0.42755   0.22191   0.95782   1.000
    O101    O    0.92757   0.22190   0.95782   1.000
    O102    O    0.01775   0.22582   0.90278   1.000
    O103    O    0.51776   0.22578   0.90279   1.000
    O104    O    0.11798   0.13837   0.82089   1.000
    O105    O    0.61796   0.13812   0.82096   1.000
    O106    O    0.12703   0.12941   0.68358   1.000
    O107    O    0.62683   0.12923   0.68362   1.000
    O108    O    0.11997   0.29933   0.66973   1.000
    O109    O    0.61990   0.29914   0.66986   1.000
    O110    O    0.11754   0.31188   0.80990   1.000
    O111    O    0.61756   0.31169   0.81002   1.000
    O112    O    0.47453   0.35092   0.45595   1.000
    O113    O    0.97432   0.34902   0.45467   1.000
    O114    O    0.06300   0.31879   0.50715   1.000
    O115    O    0.56336   0.31922   0.50737   1.000
    O116    O    0.02561   0.16295   0.55217   1.000
    O117    O    0.52546   0.16341   0.55168   1.000
    O118    O    0.43923   0.18979   0.48990   1.000
    O119    O    0.93881   0.18917   0.49193   1.000
    O120    O    0.31037   0.22208   0.95157   1.000
    O121    O    0.81038   0.22208   0.95160   1.000
    O122    O    0.21950   0.22265   0.89790   1.000
    O123    O    0.71950   0.22255   0.89799   1.000
    O124    O    0.17775   0.28109   0.04165   1.000
    O125    O    0.67776   0.28107   0.04169   1.000
    O126    O    0.26767   0.27448   0.09727   1.000
    O127    O    0.76769   0.27450   0.09731   1.000
    O128    O    0.36831   0.36221   0.17922   1.000
    O129    O    0.86854   0.36205   0.17934   1.000
    O130    O    0.37715   0.37090   0.31651   1.000
    O131    O    0.87702   0.37063   0.31668   1.000
    O132    O    0.36993   0.20100   0.33013   1.000
    O133    O    0.86999   0.20067   0.33014   1.000
    O134    O    0.36748   0.18857   0.18994   1.000
    O135    O    0.86749   0.18844   0.18994   1.000
    O136    O    0.22431   0.15098   0.54530   1.000
    O137    O    0.72415   0.14951   0.54448   1.000
    O138    O    0.31309   0.18132   0.49284   1.000
    O139    O    0.81302   0.18073   0.49270   1.000
    O140    O    0.27580   0.33706   0.44768   1.000
    O141    O    0.77563   0.33662   0.44836   1.000
    O142    O    0.18902   0.31082   0.50824   1.000
    O143    O    0.68924   0.31052   0.51006   1.000
    O144    O    0.43964   0.77790   0.45148   1.000
    O145    O    0.93958   0.77791   0.45149   1.000
    O146    O    0.03052   0.77768   0.39790   1.000
    O147    O    0.53054   0.77735   0.39784   1.000
    O148    O    0.07241   0.72184   0.54200   1.000
    O149    O    0.88020   0.79931   0.82994   1.000
    O150    O    0.38251   0.81189   0.68987   1.000
    O151    O    0.88252   0.81149   0.68970   1.000
    O152    O    0.02599   0.85031   0.04447   1.000
    O153    O    0.52600   0.85010   0.04468   1.000
    O154    O    0.43720   0.81907   0.99268   1.000
    O155    O    0.93718   0.81911   0.99268   1.000
    O156    O    0.47460   0.66323   0.94830   1.000
    O157    O    0.97462   0.66328   0.94833   1.000
    O158    O    0.06100   0.68944   0.00995   1.000
    O159    O    0.56100   0.68934   0.00995   1.000
loop_
    _geom_bond_atom_site_label_1
    _geom_bond_atom_site_label_2
    _geom_bond_distance
    _geom_bond_site_symmetry_2
    _ccdc_geom_bond_type
    O90    Y1        2.42898      .   S
    O90    C25       1.25385  1_554   S
    O91    Y2        2.42864      .   S
    O91    C26       1.25384  1_554   S
    O159   Y2        2.36493      .   S
    O159   C71       1.25791  1_554   S
    O158   Y1        2.36417      .   S
    O158   C70       1.25799  1_554   S
    C69    O152      1.28273  1_655   S
    C69    O155      1.25419  1_554   S
    C68    O153      1.28363      .   S
    C68    O154      1.25388  1_554   S
    C27    O92       1.27381      .   S
    C27    O94       1.25787  1_554   S
    C28    O93       1.27379      .   S
    C28    O95       1.25784  1_554   S
    C50    O124      1.26931      .   S
    C50    O126      1.26496      .   S
    C51    O125      1.26934      .   S
    C51    O127      1.26510      .   S
    O124   Y3        2.34829  1_554   S
    O125   Y4        2.34837  1_554   S
    C30    O96       1.40650      .   S
    C30    O99       1.17798  1_455   S
    C29    O97       1.27040      .   S
    C29    O98       1.26485      .   S
    O96    Y3        2.39672  1_554   S
    O97    Y4        2.39652  1_554   S
    Y1     O92       2.35601      .   S
    Y1     O82       2.42095      .   S
    Y2     O93       2.35613      .   S
    Y2     O83       2.42258      .   S
    Y8     O127      2.37205      .   S
    Y8     O129      2.34819      .   S
    Y8     O135      2.36221      .   S
    Y8     O121      2.39395  1_554   S
    Y8     O101      2.33991  1_554   S
    Y7     O126      2.37029      .   S
    Y7     O128      2.34325      .   S
    Y7     O134      2.35652      .   S
    Y7     O120      2.39875  1_554   S
    Y7     O100      2.34473  1_554   S
    O85    C24       1.26095      .   S
    O84    C23       1.26104      .   S
    O128   C52       1.25580      .   S
    O129   C53       1.25579      .   S
    O82    C21       1.27674      .   S
    O83    C22       1.27686      .   S
    O135   C55       1.27431      .   S
    O134   C54       1.27440      .   S
    C23    O86       1.27445      .   S
    C24    O87       1.27433      .   S
    C52    O130      1.27666      .   S
    C53    O131      1.27654      .   S
    C21    O80       1.25567      .   S
    C22    O81       1.25567      .   S
    C54    O132      1.26101      .   S
    C55    O133      1.26114      .   S
    O87    Y0        2.35368      .   S
    O86    Y15       2.35640      .   S
    O130   Y9        2.42021      .   S
    O131   Y10       2.42407      .   S
    O80    Y15       2.34440      .   S
    O81    Y0        2.34584      .   S
    O147   C61       1.26491      .   S
    O146   C60       1.26576  1_455   S
    O78    Y15       2.37102      .   S
    O78    C19       1.26488      .   S
    O79    Y0        2.37287      .   S
    O79    C20       1.26475      .   S
    Y15    O148      2.34143      .   S
    Y15    O72       2.39784      .   S
    Y0     O40       2.34689      .   S
    Y0     O73       2.39580      .   S
    O140   Y9        2.35433      .   S
    O140   C58       1.27374      .   S
    O141   Y10       2.35428      .   S
    O141   C59       1.27398      .   S
    Y9     O118      2.36208      .   S
    Y9     O138      2.43144      .   S
    Y10    O119      2.36673      .   S
    Y10    O139      2.42654      .   S
    O144   C61       1.27040      .   S
    O144   Y11       2.39515      .   S
    O145   C60       1.26970      .   S
    O145   Y12       2.39905      .   S
    O113   C37       1.28252  1_655   S
    O112   C38       1.28329      .   S
    O77    C20       1.26931      .   S
    O77    Y12       2.34357      .   S
    O76    C19       1.26941      .   S
    O76    Y11       2.34761      .   S
    C58    O142      1.25764      .   S
    C37    O114      1.25374      .   S
    C59    O143      1.25762      .   S
    C38    O115      1.25394      .   S
    O118   C39       1.25794      .   S
    O119   C16       1.25761      .   S
    O139   C57       1.25393      .   S
    O138   C56       1.25360      .   S
    O114   Y5        2.42761      .   S
    O115   Y6        2.42947      .   S
    O142   Y5        2.36676      .   S
    O143   Y6        2.36345      .   S
    C57    O137      1.28314      .   S
    C56    O136      1.28305      .   S
    C39    O117      1.27405      .   S
    C16    O116      1.27345  1_655   S
    C63    O40       1.26934      .   S
    C63    O41       1.26261      .   S
    C62    O148      1.26904      .   S
    C62    O42       1.26459  1_455   S
    C17    O72       1.27030      .   S
    C17    O74       1.26492      .   S
    C18    O73       1.27034      .   S
    C18    O75       1.26489      .   S
    Y5     O116      2.35559      .   S
    Y5     O106      2.42516      .   S
    Y6     O117      2.35378      .   S
    Y6     O107      2.42316      .   S
    Y11    O41       2.37205      .   S
    Y11    O43       2.34531      .   S
    Y11    O150      2.35363      .   S
    Y12    O42       2.37227      .   S
    Y12    O44       2.34246      .   S
    Y12    O151      2.35612      .   S
    O108   C35       1.26122      .   S
    O109   C36       1.26090      .   S
    O43    C64       1.25568      .   S
    O44    C65       1.25578      .   S
    O106   C33       1.27676      .   S
    O107   C34       1.27694      .   S
    O151   C67       1.27445      .   S
    O150   C66       1.27432      .   S
    C35    O110      1.27428      .   S
    C36    O111      1.27438      .   S
    C64    O45       1.27676      .   S
    C65    O46       1.27649      .   S
    C33    O104      1.25575      .   S
    C34    O105      1.25576      .   S
    C67    O149      1.26112      .   S
    C66    O47       1.26036      .   S
    O110   Y3        2.35468      .   S
    O111   Y4        2.35406      .   S
    O45    Y13       2.42402      .   S
    O46    Y14       2.42212      .   S
    O104   Y3        2.34553      .   S
    O105   Y4        2.34659      .   S
    O122   C48       1.26507      .   S
    O123   C49       1.26507      .   S
    O102   Y3        2.37303      .   S
    O102   C32       1.26445  1_455   S
    O103   Y4        2.37336      .   S
    O103   C31       1.26490      .   S
    O156   Y13       2.35584      .   S
    O156   C71       1.27400      .   S
    O157   Y14       2.35568      .   S
    O157   C70       1.27369  1_655   S
    Y13    O94       2.36540      .   S
    Y13    O154      2.42792      .   S
    Y14    O95       2.36495      .   S
    Y14    O155      2.42724      .   S
    O120   C48       1.27025      .   S
    O121   C49       1.27021      .   S
    O88    C25       1.28287      .   S
    O89    C26       1.28286      .   S
    O101   C32       1.26924      .   S
    O100   C31       1.26926      .   S
    O74    Y11       2.40914      .   S
    O75    Y12       2.41222      .   S
    O84    Y1        2.47179      .   S
    O85    Y2        2.46932      .   S
    O88    Y13       2.42956      .   S
    O89    Y14       2.42950      .   S
    O98    Y7        2.41360      .   S
    O99    Y8        2.41497      .   S
    O108   Y5        2.46867      .   S
    O109   Y6        2.46971      .   S
    O112   Y9        2.43453      .   S
    O113   Y10       2.42764      .   S
    O122   Y3        2.40869      .   S
    O123   Y4        2.40825      .   S
    O132   Y9        2.47133      .   S
    O133   Y10       2.47034      .   S
    O136   Y5        2.42763      .   S
    O137   Y6        2.43273      .   S
    O146   Y15       2.41200      .   S
    O147   Y0        2.40828      .   S
    O47    Y13       2.46925      .   S
    O149   Y14       2.47070      .   S
    O152   Y1        2.43133      .   S
    O153   Y2        2.43081      .   S
