# CIF file generated by openbabel 2.4.90, see http://openbabel.sf.net
data_I
_chemical_name_common ''
_cell_length_a 23.047
_cell_length_b 15.562
_cell_length_c 16.219
_cell_angle_alpha 89.978
_cell_angle_beta 89.974
_cell_angle_gamma 90.074
_space_group_name_H-M_alt 'P 1'
_space_group_name_Hall 'P 1'
loop_
    _symmetry_equiv_pos_as_xyz
    x,y,z
loop_
    _atom_site_label
    _atom_site_type_symbol
    _atom_site_fract_x
    _atom_site_fract_y
    _atom_site_fract_z
    _atom_site_occupancy
    Y0      Y    0.63170   0.76740   0.43370   1.000
    Y1      Y    0.12563   0.79959   0.05070   1.000
    Y2      Y    0.62564   0.79949   0.05085   1.000
    Y3      Y    0.11829   0.23270   0.93364   1.000
    Y4      Y    0.61830   0.23254   0.93373   1.000
    Y5      Y    0.12460   0.20078   0.55068   1.000
    Y6      Y    0.62451   0.20049   0.55080   1.000
    Y7      Y    0.36810   0.26825   0.06636   1.000
    Y8      Y    0.86814   0.26821   0.06600   1.000
    Y9      Y    0.37477   0.29978   0.44920   1.000
    Y10     Y    0.87455   0.29910   0.44943   1.000
    Y11     Y    0.38172   0.73272   0.56626   1.000
    Y12     Y    0.88173   0.73169   0.56628   1.000
    Y13     Y    0.37562   0.70081   0.94917   1.000
    Y14     Y    0.87563   0.70081   0.94928   1.000
    Y15     Y    0.13189   0.76822   0.43366   1.000
