# CIF file generated by openbabel 2.4.90, see http://openbabel.sf.net
data_I
_chemical_name_common ''
_cell_length_a 21.511
_cell_length_b 12.442
_cell_length_c 26.091
_cell_angle_alpha 91.126
_cell_angle_beta 89.998
_cell_angle_gamma 89.989
_space_group_name_H-M_alt 'P 1'
_space_group_name_Hall 'P 1'
loop_
    _symmetry_equiv_pos_as_xyz
    x,y,z
loop_
    _atom_site_label
    _atom_site_type_symbol
    _atom_site_fract_x
    _atom_site_fract_y
    _atom_site_fract_z
    _atom_site_occupancy
    H0      H    0.31331   0.98395   0.16189   1.000
    H1      H    0.81214   0.98429   0.16187   1.000
    H2      H    0.18254   0.95600   0.20738   1.000
    H3      H    0.68143   0.95578   0.20739   1.000
    H4      H    0.17459   0.86431   0.28630   1.000
    H5      H    0.67353   0.86413   0.28626   1.000
    H6      H    0.22000   0.78025   0.36260   1.000
    H7      H    0.71894   0.78018   0.36260   1.000
    H8      H    0.40312   0.86561   0.31006   1.000
    H9      H    0.90204   0.86593   0.31015   1.000
    H10     H    0.35783   0.94864   0.23377   1.000
    H11     H    0.85674   0.94882   0.23382   1.000
    H12     H    0.26910   0.69408   0.42554   1.000
    H13     H    0.76802   0.69416   0.42558   1.000
    H14     H    0.39644   0.77001   0.38586   1.000
    H15     H    0.89536   0.77028   0.38596   1.000
    H16     H    0.34937   0.18228   0.50813   1.000
    H17     H    0.84886   0.18174   0.50796   1.000
    H18     H    0.48093   0.27083   0.52985   1.000
    H19     H    0.98026   0.27078   0.52981   1.000
    H20     H    0.06462   0.15607   0.52730   1.000
    H21     H    0.56500   0.15554   0.52730   1.000
    H22     H    0.38581   0.02151   0.48942   1.000
    H23     H    0.88576   0.02057   0.48930   1.000
    H24     H    0.31318   0.51592   0.33794   1.000
    H25     H    0.81229   0.51567   0.33810   1.000
    H26     H    0.18231   0.54413   0.29268   1.000
    H27     H    0.68157   0.54438   0.29265   1.000
    H28     H    0.17426   0.63607   0.21377   1.000
    H29     H    0.67365   0.63638   0.21387   1.000
    H30     H    0.21962   0.72001   0.13739   1.000
    H31     H    0.71902   0.72027   0.13700   1.000
    H32     H    0.40274   0.63375   0.18965   1.000
    H33     H    0.90211   0.63366   0.18969   1.000
    H34     H    0.35750   0.55082   0.26598   1.000
    H35     H    0.85685   0.55081   0.26600   1.000
    H36     H    0.26880   0.80588   0.07430   1.000
    H37     H    0.76806   0.80591   0.07440   1.000
    H38     H    0.39608   0.72965   0.11402   1.000
    H39     H    0.89541   0.72965   0.11398   1.000
    H40     H    0.34936   0.31775   0.99207   1.000
    H41     H    0.84891   0.31831   0.99203   1.000
    H42     H    0.48098   0.22888   0.97082   1.000
    H43     H    0.98032   0.22926   0.97013   1.000
    H44     H    0.06466   0.34394   0.97271   1.000
    H45     H    0.56499   0.34431   0.97278   1.000
    H46     H    0.38585   0.47858   0.01084   1.000
    H47     H    0.88575   0.47951   0.01055   1.000
    H48     H    0.18788   0.01576   0.83800   1.000
    H49     H    0.68671   0.01610   0.83807   1.000
    H50     H    0.31859   0.04427   0.79258   1.000
    H51     H    0.81748   0.04405   0.79250   1.000
    H52     H    0.32649   0.13592   0.71371   1.000
    H53     H    0.82543   0.13574   0.71367   1.000
    H54     H    0.28108   0.21987   0.63735   1.000
    H55     H    0.78002   0.21981   0.63734   1.000
    C56     C    0.88597   0.23835   0.51772   1.000
    C57     C    0.44679   0.20854   0.52033   1.000
    C58     C    0.94622   0.20835   0.52025   1.000
    C59     C    0.47208   0.10172   0.51011   1.000
    H60     H    0.09798   0.13413   0.68982   1.000
    H61     H    0.59690   0.13444   0.68990   1.000
    H62     H    0.14327   0.05124   0.76615   1.000
    H63     H    0.64219   0.05142   0.76620   1.000
    H64     H    0.23200   0.30589   0.57439   1.000
    H65     H    0.73092   0.30597   0.57443   1.000
    H66     H    0.10466   0.22977   0.61401   1.000
    H67     H    0.60358   0.23004   0.61411   1.000
    H68     H    0.15116   0.81829   0.49201   1.000
    H69     H    0.65065   0.81776   0.49184   1.000
    H70     H    0.01976   0.72926   0.47016   1.000
    H71     H    0.51909   0.72922   0.47010   1.000
    H72     H    0.43502   0.84450   0.47262   1.000
    H73     H    0.93540   0.84397   0.47267   1.000
    H74     H    0.11426   0.97947   0.51061   1.000
    H75     H    0.61421   0.97853   0.51056   1.000
    C76     C    0.36640   0.14786   0.97531   1.000
    C77     C    0.86559   0.14846   0.97473   1.000
    C78     C    0.38660   0.26116   0.98263   1.000
    C79     C    0.88602   0.26169   0.98225   1.000
    C80     C    0.44681   0.29126   0.98015   1.000
    H81     H    0.18772   0.48438   0.66184   1.000
    H82     H    0.68683   0.48412   0.66200   1.000
    H83     H    0.31844   0.45567   0.70732   1.000
    H84     H    0.81771   0.45593   0.70729   1.000
    H85     H    0.32637   0.36367   0.78609   1.000
    H86     H    0.82576   0.36399   0.78620   1.000
    H87     H    0.28100   0.27978   0.86247   1.000
    H88     H    0.78040   0.28004   0.86258   1.000
    H89     H    0.09791   0.36639   0.81028   1.000
    H90     H    0.59728   0.36630   0.81032   1.000
    H91     H    0.14317   0.44924   0.73392   1.000
    H92     H    0.64252   0.44923   0.73398   1.000
    H93     H    0.23195   0.19413   0.92555   1.000
    H94     H    0.73122   0.19417   0.92567   1.000
    H95     H    0.10461   0.27040   0.88598   1.000
    H96     H    0.60394   0.27040   0.88595   1.000
    H97     H    0.15112   0.68173   0.00794   1.000
    H98     H    0.65066   0.68229   0.00700   1.000
    H99     H    0.01971   0.77078   0.02984   1.000
    H100    H    0.51905   0.77117   0.02915   1.000
    H101    H    0.43503   0.65573   0.02719   1.000
    H102    H    0.93536   0.65610   0.02726   1.000
    H103    H    0.11427   0.52053   0.98942   1.000
    H104    H    0.61417   0.52147   0.98913   1.000
    C105    C    0.22972   0.02086   0.11831   1.000
    C106    C    0.72852   0.02091   0.11830   1.000
    C107    C    0.26281   0.98631   0.16522   1.000
    C108    C    0.76164   0.98642   0.16522   1.000
    C109    C    0.23339   0.95385   0.20790   1.000
    C110    C    0.73228   0.95380   0.20790   1.000
    C111    C    0.26243   0.91187   0.25383   1.000
    C112    C    0.76135   0.91188   0.25383   1.000
    C113    C    0.22490   0.86510   0.29181   1.000
    C114    C    0.72384   0.86503   0.29180   1.000
    C115    C    0.25038   0.81795   0.33477   1.000
    C116    C    0.74932   0.81794   0.33477   1.000
    C117    C    0.31535   0.81601   0.34206   1.000
    C118    C    0.81428   0.81615   0.34211   1.000
    C119    C    0.35275   0.86578   0.30480   1.000
    C120    C    0.85167   0.86599   0.30494   1.000
    C121    C    0.32725   0.91224   0.26186   1.000
    C122    C    0.82617   0.91238   0.26100   1.000
    C123    C    0.35790   0.65895   0.46287   1.000
    C124    C    0.85681   0.65909   0.46294   1.000
    C125    C    0.31908   0.70653   0.42226   1.000
    C126    C    0.81800   0.70669   0.42232   1.000
    C127    C    0.34569   0.76369   0.38466   1.000
    C128    C    0.84461   0.76389   0.38470   1.000
    C129    C    0.36644   0.35199   0.52529   1.000
    C130    C    0.86555   0.35159   0.52524   1.000
    C131    C    0.38659   0.23870   0.51784   1.000
    C132    C    0.97179   0.10162   0.51006   1.000
    C133    C    0.03660   0.08681   0.51556   1.000
    C134    C    0.53685   0.08648   0.51558   1.000
    C135    C    0.43591   0.01276   0.49418   1.000
    C136    C    0.93588   0.01228   0.49415   1.000
    C137    C    0.22967   0.47912   0.38165   1.000
    C138    C    0.72863   0.47899   0.38166   1.000
    C139    C    0.26267   0.51365   0.33470   1.000
    C140    C    0.76179   0.51357   0.33478   1.000
    C141    C    0.23316   0.54618   0.29207   1.000
    C142    C    0.73242   0.54629   0.29211   1.000
    C143    C    0.26211   0.58807   0.24609   1.000
    C144    C    0.76147   0.58820   0.24617   1.000
    C145    C    0.22456   0.63505   0.20810   1.000
    C146    C    0.72394   0.63527   0.20827   1.000
    C147    C    0.25002   0.68214   0.16519   1.000
    C148    C    0.74940   0.68232   0.16528   1.000
    C149    C    0.31497   0.68380   0.15781   1.000
    C150    C    0.81435   0.68387   0.15787   1.000
    C151    C    0.35238   0.63380   0.19491   1.000
    C152    C    0.85175   0.63381   0.19496   1.000
    C153    C    0.32691   0.58740   0.23796   1.000
    C154    C    0.82627   0.58745   0.23800   1.000
    C155    C    0.35766   0.84093   0.03705   1.000
    C156    C    0.85684   0.84096   0.03700   1.000
    C157    C    0.31877   0.79335   0.07762   1.000
    C158    C    0.81804   0.79336   0.07766   1.000
    C159    C    0.34533   0.73608   0.11521   1.000
    C160    C    0.84467   0.73611   0.11523   1.000
    C161    C    0.94626   0.29169   0.97970   1.000
    C162    C    0.47209   0.39820   0.99011   1.000
    C163    C    0.97181   0.39842   0.98990   1.000
    C164    C    0.03663   0.41321   0.98440   1.000
    C165    C    0.53684   0.41344   0.98440   1.000
    C166    C    0.43593   0.48729   0.00595   1.000
    C167    C    0.93588   0.48778   0.00579   1.000
    C168    C    0.27150   0.97912   0.88167   1.000
    C169    C    0.77030   0.97918   0.88166   1.000
    C170    C    0.23838   0.01362   0.83475   1.000
    C171    C    0.73721   0.01374   0.83475   1.000
    C172    C    0.26774   0.04625   0.79207   1.000
    C173    C    0.76663   0.04621   0.79207   1.000
    C174    C    0.23867   0.08817   0.74614   1.000
    C175    C    0.73759   0.08818   0.74614   1.000
    C176    C    0.27618   0.13502   0.70817   1.000
    C177    C    0.77512   0.13495   0.70816   1.000
    C178    C    0.25070   0.18211   0.66519   1.000
    C179    C    0.74963   0.18210   0.66520   1.000
    C180    C    0.18574   0.18390   0.65786   1.000
    C181    C    0.68467   0.18404   0.65791   1.000
    C182    C    0.14835   0.13407   0.69502   1.000
    C183    C    0.64727   0.13427   0.69508   1.000
    C184    C    0.17385   0.08767   0.73807   1.000
    C185    C    0.67277   0.08781   0.73811   1.000
    C186    C    0.14321   0.34095   0.53703   1.000
    C187    C    0.64212   0.34109   0.53710   1.000
    C188    C    0.18202   0.29335   0.57765   1.000
    C189    C    0.68094   0.29351   0.57771   1.000
    C190    C    0.15541   0.23616   0.61523   1.000
    C191    C    0.65433   0.23636   0.61531   1.000
    C192    C    0.13447   0.64845   0.47473   1.000
    C193    C    0.63358   0.64805   0.47467   1.000
    C194    C    0.11405   0.76169   0.48225   1.000
    C195    C    0.61343   0.76134   0.48213   1.000
    C196    C    0.05380   0.79170   0.47972   1.000
    C197    C    0.55323   0.79150   0.47964   1.000
    C198    C    0.02823   0.89842   0.48992   1.000
    C199    C    0.52794   0.89831   0.48987   1.000
    C200    C    0.46317   0.91356   0.48439   1.000
    C201    C    0.96342   0.91323   0.48442   1.000
    C202    C    0.06414   0.98776   0.50582   1.000
    C203    C    0.56411   0.98728   0.50579   1.000
    C204    C    0.27139   0.52104   0.61830   1.000
    C205    C    0.77035   0.52092   0.61832   1.000
    C206    C    0.23823   0.48647   0.66519   1.000
    C207    C    0.73734   0.48639   0.66527   1.000
    C208    C    0.26759   0.45376   0.70780   1.000
    C209    C    0.76686   0.45387   0.70790   1.000
    C210    C    0.23855   0.41185   0.75380   1.000
    C211    C    0.73791   0.41198   0.75388   1.000
    C212    C    0.27608   0.36478   0.79170   1.000
    C213    C    0.77546   0.36500   0.79179   1.000
    C214    C    0.25062   0.31773   0.83469   1.000
    C215    C    0.75001   0.31792   0.83478   1.000
    C216    C    0.18567   0.31618   0.84210   1.000
    C217    C    0.68505   0.31625   0.84216   1.000
    C218    C    0.14827   0.36624   0.80501   1.000
    C219    C    0.64764   0.36625   0.80506   1.000
    C220    C    0.17375   0.41260   0.76194   1.000
    C221    C    0.67311   0.41265   0.76201   1.000
    C222    C    0.14317   0.15908   0.96292   1.000
    C223    C    0.64236   0.15911   0.96292   1.000
    C224    C    0.18198   0.20669   0.92230   1.000
    C225    C    0.68125   0.20670   0.92235   1.000
    C226    C    0.15535   0.26394   0.88474   1.000
    C227    C    0.65470   0.26397   0.88476   1.000
    C228    C    0.13443   0.85158   0.02524   1.000
    C229    C    0.63362   0.85218   0.02465   1.000
    C230    C    0.11400   0.73834   0.01772   1.000
    C231    C    0.61341   0.73889   0.01734   1.000
    C232    C    0.05376   0.70835   0.02027   1.000
    C233    C    0.55321   0.70878   0.01982   1.000
    C234    C    0.02821   0.60162   0.01007   1.000
    C235    C    0.52793   0.60185   0.00980   1.000
    C236    C    0.46318   0.58661   0.01548   1.000
    C237    C    0.96340   0.58683   0.01554   1.000
    C238    C    0.06414   0.51226   0.99418   1.000
    C239    C    0.56409   0.51275   0.99402   1.000
    O240    O    0.30866   0.36972   0.51807   1.000
    O241    O    0.80775   0.36915   0.51799   1.000
    O242    O    0.40775   0.42194   0.53754   1.000
    O243    O    0.90670   0.42173   0.53758   1.000
    O244    O    0.32773   0.60647   0.49836   1.000
    O245    O    0.82662   0.60651   0.49840   1.000
    O246    O    0.41551   0.67075   0.46447   1.000
    O247    O    0.91443   0.67091   0.46454   1.000
    O248    O    0.26390   0.04056   0.07959   1.000
    O249    O    0.76271   0.04093   0.07960   1.000
    O250    O    0.17041   0.02766   0.12006   1.000
    O251    O    0.66917   0.02737   0.12001   1.000
    O252    O    0.30847   0.13048   0.98189   1.000
    O253    O    0.80780   0.13093   0.98200   1.000
    O254    O    0.40777   0.07748   0.96381   1.000
    O255    O    0.90673   0.07829   0.96236   1.000
    O256    O    0.32753   0.89331   0.00151   1.000
    O257    O    0.82665   0.89355   0.00159   1.000
    O258    O    0.41529   0.82920   0.03553   1.000
    O259    O    0.91446   0.82912   0.03544   1.000
    O260    O    0.26389   0.45943   0.42030   1.000
    O261    O    0.76277   0.45905   0.42037   1.000
    O262    O    0.17036   0.47232   0.37993   1.000
    O263    O    0.66930   0.47240   0.37990   1.000
    O264    O    0.19226   0.63089   0.48198   1.000
    O265    O    0.69135   0.63031   0.48190   1.000
    O266    O    0.09331   0.57831   0.46239   1.000
    O267    O    0.59227   0.57810   0.46243   1.000
    O268    O    0.17339   0.39352   0.50157   1.000
    O269    O    0.67229   0.39356   0.50161   1.000
    O270    O    0.08559   0.32912   0.53543   1.000
    O271    O    0.58451   0.32928   0.53550   1.000
    O272    O    0.23730   0.95911   0.92032   1.000
    O273    O    0.73612   0.95949   0.92030   1.000
    O274    O    0.33085   0.97266   0.87996   1.000
    O275    O    0.82961   0.97236   0.87991   1.000
    O276    O    0.19221   0.86912   0.01797   1.000
    O277    O    0.69155   0.86955   0.01808   1.000
    O278    O    0.09328   0.92174   0.03761   1.000
    O279    O    0.59224   0.92255   0.03615   1.000
    O280    O    0.17336   0.10648   0.99838   1.000
    O281    O    0.67248   0.10673   0.99846   1.000
    O282    O    0.08555   0.17091   0.96452   1.000
    O283    O    0.58473   0.17084   0.96444   1.000
    O284    O    0.23724   0.54098   0.57960   1.000
    O285    O    0.73613   0.54061   0.57962   1.000
    O286    O    0.33071   0.52763   0.62007   1.000
    O287    O    0.82966   0.52771   0.62004   1.000
loop_
    _geom_bond_atom_site_label_1
    _geom_bond_atom_site_label_2
    _geom_bond_distance
    _geom_bond_site_symmetry_2
    _ccdc_geom_bond_type
    O256   C155      1.31455      .   S
    O257   C156      1.31419      .   S
    C167   H47       1.09058      .   S
    C167   C237      1.38620      .   S
    C167   C163      1.40957  1_554   S
    C166   H46       1.09052      .   S
    C166   C236      1.38581      .   S
    C166   C162      1.40944  1_554   S
    H98    C231      1.09668      .   S
    H97    C230      1.09153      .   S
    C235   C236      1.41380      .   S
    C235   C233      1.45628      .   S
    C235   C239      1.40902  1_554   S
    C234   C237      1.41400  1_455   S
    C234   C232      1.45688      .   S
    C234   C238      1.40956  1_554   S
    C236   H101      1.09053      .   S
    C237   H102      1.09064      .   S
    C231   C233      1.35014      .   S
    C231   C229      1.48388      .   S
    C230   C232      1.35057      .   S
    C230   C228      1.48517      .   S
    O276   C228      1.27689      .   S
    O277   C229      1.27693      .   S
    C233   H100      1.09278      .   S
    C232   H99       1.09291      .   S
    C229   O279      1.28004      .   S
    C228   O278      1.28000      .   S
    O259   C156      1.24872      .   S
    O258   C155      1.24874      .   S
    C156   C158      1.48244      .   S
    C155   C157      1.48166      .   S
    H36    C157      1.08982      .   S
    H37    C158      1.08985      .   S
    C157   C159      1.35027      .   S
    C158   C160      1.35039      .   S
    O248   C105      1.27710      .   S
    O249   C106      1.27763      .   S
    H39    C160      1.09504      .   S
    H38    C159      1.09503      .   S
    C159   C149      1.45377      .   S
    C160   C150      1.45392      .   S
    C106   O251      1.27989      .   S
    C106   C108      1.48697  1_545   S
    C105   O250      1.27936      .   S
    C105   C107      1.48666  1_545   S
    H31    C148      1.09916      .   S
    H30    C147      1.09046      .   S
    C149   C147      1.41064      .   S
    C149   C151      1.41243      .   S
    C150   C148      1.41065      .   S
    C150   C152      1.41244      .   S
    H1     C108      1.09022      .   S
    H0     C107      1.09014      .   S
    C147   C145      1.38650      .   S
    C108   C110      1.34960      .   S
    C107   C109      1.34960      .   S
    C148   C146      1.38804      .   S
    H32    C151      1.09199      .   S
    H33    C152      1.09202      .   S
    C151   C153      1.38584      .   S
    C152   C154      1.38554      .   S
    H2     C109      1.09421      .   S
    H3     C110      1.09422      .   S
    C109   C111      1.45722      .   S
    C110   C112      1.45727      .   S
    C145   H28       1.09206      .   S
    C145   C143      1.41395      .   S
    C146   H29       1.09176      .   S
    C146   C144      1.41248      .   S
    H10    C121      1.08996      .   S
    H11    C122      1.07412      .   S
    C153   C143      1.40999      .   S
    C153   H34       1.08978      .   S
    C154   C144      1.41015      .   S
    C154   H35       1.08960      .   S
    C143   C141      1.45719      .   S
    C144   C142      1.45727      .   S
    C112   C122      1.40680      .   S
    C112   C114      1.41257      .   S
    C111   C121      1.41004      .   S
    C111   C113      1.41248      .   S
    C122   C120      1.40511      .   S
    C121   C119      1.38406      .   S
    H5     C114      1.09178      .   S
    H4     C113      1.09177      .   S
    C114   C116      1.38795      .   S
    C113   C115      1.38810      .   S
    C141   H26       1.09422      .   S
    C141   C139      1.34969      .   S
    C142   H27       1.09422      .   S
    C142   C140      1.34979      .   S
    C119   H8        1.09226      .   S
    C119   C117      1.41403      .   S
    C120   H9        1.09205      .   S
    C120   C118      1.41265      .   S
    C139   H24       1.09014      .   S
    C139   C137      1.48660      .   S
    C116   C118      1.41065      .   S
    C116   H7        1.09023      .   S
    C115   C117      1.41064      .   S
    C115   H6        1.08993      .   S
    C140   H25       1.09014      .   S
    C140   C138      1.48686      .   S
    C117   C127      1.45372      .   S
    C118   C128      1.45311      .   S
    O263   C138      1.27956      .   S
    O262   C137      1.27937      .   S
    C137   O260      1.27607      .   S
    C138   O261      1.27704      .   S
    C127   H14       1.09504      .   S
    C127   C125      1.35031      .   S
    C128   H15       1.09508      .   S
    C128   C126      1.35099      .   S
    C125   H12       1.08982      .   S
    C125   C123      1.48158      .   S
    C126   H13       1.08983      .   S
    C126   C124      1.48172      .   S
    O266   C192      1.27998      .   S
    O267   C193      1.28003      .   S
    C123   O246      1.24869      .   S
    C123   O244      1.31480      .   S
    C124   O247      1.24877      .   S
    C124   O245      1.31508      .   S
    H71    C197      1.09287      .   S
    H70    C196      1.09294      .   S
    H72    C200      1.09046      .   S
    H73    C201      1.09072      .   S
    C193   O265      1.27693      .   S
    C193   C195      1.48374      .   S
    C192   O264      1.27692      .   S
    C192   C194      1.48518      .   S
    C197   C195      1.35007      .   S
    C197   C199      1.45579      .   S
    C196   C194      1.35054      .   S
    C196   C198      1.45685      .   S
    C195   H69       1.09148      .   S
    C194   H68       1.09153      .   S
    C200   C199      1.41363      .   S
    C200   C135      1.38563  1_565   S
    C201   C198      1.41398  1_655   S
    C201   C136      1.38608  1_565   S
    H23    C136      1.09075      .   S
    H22    C135      1.09051      .   S
    C199   C203      1.40915      .   S
    C198   C202      1.40941      .   S
    C136   C132      1.40947      .   S
    C135   C59       1.40923      .   S
    O268   C186      1.31501      .   S
    O269   C187      1.31470      .   S
    C203   H75       1.09054      .   S
    C203   C134      1.38563  1_565   S
    C202   H74       1.09059      .   S
    C202   C133      1.38612  1_565   S
    H17    C56       1.09156      .   S
    H16    C131      1.09146      .   S
    C132   C133      1.41398  1_655   S
    C132   C58       1.45682      .   S
    C59    C134      1.41360      .   S
    C59    C57       1.45577      .   S
    C133   H20       1.09066      .   S
    C134   H21       1.09011      .   S
    C56    C58       1.35054      .   S
    C56    C130      1.48516      .   S
    C131   C57       1.35004      .   S
    C131   C129      1.48369      .   S
    O241   C130      1.27694      .   S
    O240   C129      1.27689      .   S
    C58    H19       1.09294      .   S
    C57    H18       1.09278      .   S
    C130   O243      1.27992      .   S
    C129   O242      1.28005      .   S
    O270   C186      1.24877      .   S
    O271   C187      1.24871      .   S
    C186   C188      1.48172      .   S
    C187   C189      1.48156      .   S
    H64    C188      1.08981      .   S
    H65    C189      1.08981      .   S
    C188   C190      1.35018      .   S
    C189   C191      1.35031      .   S
    O284   C204      1.27685      .   S
    O285   C205      1.27712      .   S
    H66    C190      1.09505      .   S
    H67    C191      1.09503      .   S
    C190   C180      1.45391      .   S
    C191   C181      1.45370      .   S
    C204   O286      1.27956      .   S
    C204   C206      1.48703      .   S
    C205   O287      1.27938      .   S
    C205   C207      1.48656      .   S
    H55    C179      1.09047      .   S
    H54    C178      1.09041      .   S
    C180   C178      1.41062      .   S
    C180   C182      1.41246      .   S
    C181   C179      1.41064      .   S
    C181   C183      1.41239      .   S
    H81    C206      1.09020      .   S
    H82    C207      1.09020      .   S
    C178   C176      1.38816      .   S
    C206   C208      1.34847      .   S
    C179   C177      1.38809      .   S
    C207   C209      1.34970      .   S
    H60    C182      1.09200      .   S
    H61    C183      1.09200      .   S
    C182   C184      1.38604      .   S
    C183   C185      1.38596      .   S
    H84    C209      1.09422      .   S
    H83    C208      1.09420      .   S
    C208   C210      1.45852      .   S
    C209   C211      1.45717      .   S
    C177   H53       1.09177      .   S
    C177   C175      1.41248      .   S
    C176   H52       1.09178      .   S
    C176   C174      1.41256      .   S
    H91    C220      1.08995      .   S
    H92    C221      1.08995      .   S
    C184   C174      1.41011      .   S
    C184   H62       1.08997      .   S
    C185   C175      1.41006      .   S
    C185   H63       1.08995      .   S
    C175   C173      1.45724      .   S
    C174   C172      1.45729      .   S
    C210   C220      1.41004      .   S
    C210   C212      1.41249      .   S
    C211   C221      1.40999      .   S
    C211   C213      1.41248      .   S
    C220   C218      1.38619      .   S
    C221   C219      1.38585      .   S
    H85    C212      1.09177      .   S
    H86    C213      1.09178      .   S
    C212   C214      1.38805      .   S
    C213   C215      1.38820      .   S
    C172   H50       1.09422      .   S
    C172   C170      1.34963      .   S
    C173   H51       1.09418      .   S
    C173   C171      1.34961      .   S
    C218   H89       1.09200      .   S
    C218   C216      1.41244      .   S
    C219   H90       1.09197      .   S
    C219   C217      1.41243      .   S
    C214   C216      1.41063      .   S
    C214   H87       1.09035      .   S
    C170   H48       1.08999      .   S
    C170   C168      1.48696  1_545   S
    C171   H49       1.09014      .   S
    C171   C169      1.48664  1_545   S
    C215   C217      1.41066      .   S
    C215   H88       1.09045      .   S
    C216   C226      1.45393      .   S
    C217   C227      1.45379      .   S
    O275   C169      1.27935      .   S
    O274   C168      1.27987      .   S
    C169   O273      1.27546      .   S
    C168   O272      1.27665      .   S
    C226   H95       1.09503      .   S
    C226   C224      1.35022      .   S
    C227   H96       1.09503      .   S
    C227   C225      1.35025      .   S
    C224   H93       1.08981      .   S
    C224   C222      1.48178      .   S
    C225   H94       1.08982      .   S
    C225   C223      1.48171      .   S
    O255   C77       1.28001      .   S
    C223   O283      1.24876      .   S
    C223   O281      1.31455      .   S
    C222   O282      1.24873      .   S
    C222   O280      1.31516      .   S
    O254   C76       1.28000      .   S
    H43    C161      1.09292      .   S
    H42    C80       1.09279      .   S
    H44    C164      1.09044      .   S
    H45    C165      1.08992      .   S
    C77    O253      1.27686      .   S
    C77    C79       1.48522      .   S
    C76    O252      1.27695      .   S
    C76    C78       1.48393      .   S
    C161   C79       1.35057      .   S
    C161   C163      1.45690      .   S
    C80    C78       1.35018      .   S
    C80    C162      1.45603      .   S
    C79    H41       1.09154      .   S
    C78    H40       1.09146      .   S
    C165   C162      1.41390      .   S
    C165   C239      1.38619      .   S
    C164   C163      1.41408  1_455   S
    C164   C238      1.38633      .   S
    H104   C239      1.09052      .   S
    H103   C238      1.09058      .   S
