# CIF file generated by openbabel 2.4.90, see http://openbabel.sf.net
data_I
_chemical_name_common ''
_cell_length_a 21.511
_cell_length_b 12.442
_cell_length_c 26.091
_cell_angle_alpha 91.126
_cell_angle_beta 89.998
_cell_angle_gamma 89.989
_space_group_name_H-M_alt 'P 1'
_space_group_name_Hall 'P 1'
loop_
    _symmetry_equiv_pos_as_xyz
    x,y,z
loop_
    _atom_site_label
    _atom_site_type_symbol
    _atom_site_fract_x
    _atom_site_fract_y
    _atom_site_fract_z
    _atom_site_occupancy
    Zr0     Zr   0.38347   0.57409   0.55987   1.000
    Zr1     Zr   0.88244   0.57400   0.55985   1.000
    Zr2     Zr   0.38353   0.92600   0.94016   1.000
    Zr3     Zr   0.88244   0.92606   0.94011   1.000
    Zr4     Zr   0.11757   0.42602   0.44012   1.000
    Zr5     Zr   0.61655   0.42594   0.44010   1.000
    Zr6     Zr   0.11757   0.07397   0.05980   1.000
    Zr7     Zr   0.61649   0.07402   0.05981   1.000
    Zr8     Zr   0.25057   0.50012   0.49999   1.000
    Zr9     Zr   0.74944   0.49991   0.49998   1.000
    Zr10    Zr   0.25055   0.99990   0.99998   1.000
    Zr11    Zr   0.74946   0.00011   0.00000   1.000
    N12     N    0.70935   0.14640   0.70470   1.000
    O13     O    0.67688   0.27808   0.58778   1.000
    O14     O    0.71010   0.29657   0.60275   1.000
    O15     O    0.78269   0.04781   0.80735   1.000
    O16     O    0.72607   0.06310   0.83242   1.000
    N17     N    0.21045   0.14632   0.70467   1.000
    O18     O    0.28382   0.04783   0.80737   1.000
    O19     O    0.17797   0.27804   0.58776   1.000
    O20     O    0.21122   0.29657   0.60273   1.000
    O21     O    0.22719   0.06291   0.83241   1.000
    N22     N    0.29041   0.64625   0.20464   1.000
    O23     O    0.27382   0.56301   0.33239   1.000
    O24     O    0.21719   0.54771   0.30733   1.000
    O25     O    0.32297   0.77795   0.08774   1.000
    O26     O    0.28972   0.79643   0.10269   1.000
    N27     N    0.70961   0.35379   0.79532   1.000
    O28     O    0.72620   0.43703   0.66756   1.000
    O29     O    0.78283   0.45233   0.69263   1.000
    O30     O    0.67705   0.22208   0.91223   1.000
    O31     O    0.71029   0.20361   0.89728   1.000
    N32     N    0.50001   0.50002   0.99994   1.000
    O33     O    0.44783   0.25088   0.97596   1.000
    O34     O    0.38976   0.28261   0.99544   1.000
    O35     O    0.55219   0.74915   0.02396   1.000
    O36     O    0.61026   0.71743   0.00449   1.000
    N37     N    0.50001   0.00002   0.49998   1.000
    O38     O    0.38981   0.21747   0.50451   1.000
    O39     O    0.55221   0.75102   0.47562   1.000
    O40     O    0.44781   0.24902   0.52434   1.000
    O41     O    0.61020   0.78256   0.49546   1.000
    N42     N    0.29067   0.85364   0.29526   1.000
    O43     O    0.27395   0.93694   0.16752   1.000
    O44     O    0.21733   0.95223   0.19259   1.000
    O45     O    0.32314   0.72196   0.41219   1.000
    O46     O    0.28991   0.70347   0.39722   1.000
    N47     N    0.78966   0.64629   0.20467   1.000
    O48     O    0.77288   0.56289   0.33242   1.000
    O49     O    0.82210   0.77805   0.08776   1.000
    O50     O    0.78885   0.79656   0.10273   1.000
    O51     O    0.71629   0.54773   0.30733   1.000
    N52     N    0.00001   0.50002   0.99998   1.000
    O53     O    0.94730   0.25110   0.97561   1.000
    O54     O    0.88932   0.28277   0.99549   1.000
    O55     O    0.05272   0.74894   0.02434   1.000
    O56     O    0.11070   0.71727   0.00448   1.000
    N57     N    0.00001   0.00002   0.49998   1.000
    O58     O    0.94729   0.24894   0.52435   1.000
    O59     O    0.88930   0.21727   0.50448   1.000
    O60     O    0.05272   0.75109   0.47562   1.000
    O61     O    0.11071   0.78276   0.49548   1.000
    N62     N    0.21036   0.35375   0.79527   1.000
    O63     O    0.17791   0.22199   0.91218   1.000
    O64     O    0.21116   0.20347   0.89723   1.000
    O65     O    0.28373   0.45230   0.69262   1.000
    O66     O    0.22714   0.43715   0.66753   1.000
    N67     N    0.78957   0.85373   0.29525   1.000
    O68     O    0.82205   0.72199   0.41219   1.000
    O69     O    0.78880   0.70347   0.39722   1.000
    O70     O    0.71620   0.95221   0.19258   1.000
    O71     O    0.77282   0.93712   0.16753   1.000
loop_
    _geom_bond_atom_site_label_1
    _geom_bond_atom_site_label_2
    _geom_bond_distance
    _geom_bond_site_symmetry_2
    _ccdc_geom_bond_type
    N12    O13       3.56005      .   S
    Zr5    O13       4.49365      .   S
    N12    O14       3.28054      .   S
    Zr9    O14       3.81745      .   S
    N12    O15       3.36099      .   S
    Zr3    O15       4.37062  1_565   S
    N12    O16       3.52773      .   S
    Zr11   O16       4.48536  1_554   S
    N17    O18       3.36157      .   S
    Zr2    O18       4.37119  1_565   S
    N17    O19       3.56028      .   S
    Zr4    O19       4.49380      .   S
    N17    O20       3.28106      .   S
    Zr8    O20       3.81879      .   S
    N17    O21       3.52848      .   S
    Zr10   O21       4.48514  1_565   S
    N22    O23       3.52786      .   S
    Zr8    O23       4.48532      .   S
    N22    O24       3.36043      .   S
    Zr4    O24       4.36969      .   S
    N22    O25       3.56028      .   S
    Zr2    O25       4.49392  1_556   S
    N22    O26       3.28054      .   S
    Zr10   O26       3.81667  1_556   S
    N27    O28       3.52805      .   S
    Zr9    O28       4.48486      .   S
    N27    O29       3.36027      .   S
    Zr1    O29       4.36951      .   S
    N27    O30       3.56041      .   S
    Zr7    O30       4.49407  1_554   S
    N27    O31       3.28075      .   S
    Zr11   O31       3.81700  1_554   S
    N32    O33       3.34440      .   S
    Zr2    O33       4.35645  1_565   S
    N32    O34       3.59801      .   S
    Zr10   O34       4.62318  1_565   S
    N32    O35       3.34453  1_556   S
    Zr7    O35       4.35657  1_545   S
    N32    O36       3.59790  1_556   S
    Zr11   O36       4.62280  1_545   S
    N37    O38       3.59689      .   S
    Zr8    O38       4.62220      .   S
    N37    O39       3.34422  1_545   S
    Zr5    O39       4.35703      .   S
    N37    O40       3.34421      .   S
    Zr0    O40       4.35698      .   S
    N37    O41       3.59690  1_545   S
    Zr9    O41       4.62220      .   S
    N42    O43       3.52798      .   S
    Zr10   O43       4.48445  1_556   S
    N42    O44       3.36114      .   S
    Zr6    O44       4.37141  1_545   S
    N42    O45       3.56024      .   S
    Zr0    O45       4.49383      .   S
    N42    O46       3.28076      .   S
    Zr8    O46       3.81769      .   S
    N47    O48       3.52898      .   S
    Zr9    O48       4.48504      .   S
    N47    O49       3.56022      .   S
    Zr3    O49       4.49393  1_556   S
    N47    O50       3.28097      .   S
    Zr11   O50       3.81871  1_545   S
    N47    O51       3.36145      .   S
    Zr5    O51       4.37108      .   S
    N52    O53       3.34754  1_455   S
    Zr3    O53       4.36056  1_565   S
    N52    O54       3.60273  1_455   S
    Zr11   O54       4.63184  1_554   S
    N52    O55       3.34738  1_556   S
    Zr6    O55       4.36022  1_545   S
    N52    O56       3.60262  1_556   S
    Zr10   O56       4.63149  1_556   S
    N57    O58       3.34715  1_455   S
    Zr1    O58       4.36024      .   S
    N57    O59       3.60230  1_455   S
    Zr9    O59       4.63075      .   S
    N57    O60       3.34716  1_545   S
    Zr4    O60       4.36028      .   S
    N57    O61       3.60230  1_545   S
    Zr8    O61       4.63077      .   S
    N62    O63       3.56033      .   S
    Zr6    O63       4.49336  1_554   S
    N62    O64       3.28146      .   S
    Zr10   O64       3.81926  1_565   S
    N62    O65       3.36105      .   S
    Zr0    O65       4.37067      .   S
    N62    O66       3.52853      .   S
    Zr8    O66       4.48458      .   S
    N67    O68       3.56085      .   S
    Zr1    O68       4.49435      .   S
    N67    O69       3.28164      .   S
    Zr9    O69       3.81935      .   S
    N67    O70       3.36105      .   S
    Zr7    O70       4.37067  1_545   S
    N67    O71       3.52812      .   S
    Zr11   O71       4.48400  1_545   S
