# CIF file generated by openbabel 2.4.90, see http://openbabel.sf.net
data_I
_chemical_name_common ''
_cell_length_a 21.511
_cell_length_b 12.442
_cell_length_c 26.091
_cell_angle_alpha 91.126
_cell_angle_beta 89.998
_cell_angle_gamma 89.989
_space_group_name_H-M_alt 'P 1'
_space_group_name_Hall 'P 1'
loop_
    _symmetry_equiv_pos_as_xyz
    x,y,z
loop_
    _atom_site_label
    _atom_site_type_symbol
    _atom_site_fract_x
    _atom_site_fract_y
    _atom_site_fract_z
    _atom_site_occupancy
    Zr0     Zr   0.38347   0.57409   0.55987   1.000
    Zr1     Zr   0.88244   0.57400   0.55985   1.000
    Zr2     Zr   0.38353   0.92600   0.94016   1.000
    Zr3     Zr   0.88244   0.92606   0.94011   1.000
    Zr4     Zr   0.11757   0.42602   0.44012   1.000
    Zr5     Zr   0.61655   0.42594   0.44010   1.000
    Zr6     Zr   0.11757   0.07397   0.05980   1.000
    Zr7     Zr   0.61649   0.07402   0.05981   1.000
    Zr8     Zr   0.25057   0.50012   0.49999   1.000
    Zr9     Zr   0.74944   0.49991   0.49998   1.000
    Zr10    Zr   0.25055   0.99990   0.99998   1.000
    Zr11    Zr   0.74946   0.00011   0.00000   1.000
    N12     N    0.70935   0.14640   0.70470   1.000
    O13     O    0.67688   0.27808   0.58778   1.000
    O14     O    0.71010   0.29657   0.60275   1.000
    O15     O    0.78269   0.04781   0.80735   1.000
    O16     O    0.72607   0.06310   0.83242   1.000
    N17     N    0.21045   0.14632   0.70467   1.000
    O18     O    0.28382   0.04783   0.80737   1.000
    O19     O    0.17797   0.27804   0.58776   1.000
    O20     O    0.21122   0.29657   0.60273   1.000
    O21     O    0.22719   0.06291   0.83241   1.000
    N22     N    0.29041   0.64625   0.20464   1.000
    O23     O    0.27382   0.56301   0.33239   1.000
    O24     O    0.21719   0.54771   0.30733   1.000
    O25     O    0.32297   0.77795   0.08774   1.000
    O26     O    0.28972   0.79643   0.10269   1.000
    N27     N    0.70961   0.35379   0.79532   1.000
    O28     O    0.72620   0.43703   0.66756   1.000
    O29     O    0.78283   0.45233   0.69263   1.000
    O30     O    0.67705   0.22208   0.91223   1.000
    O31     O    0.71029   0.20361   0.89728   1.000
    N32     N    0.53208   0.28678   0.10463   1.000
    O33     O    0.55146   0.19151   0.08747   1.000
    O34     O    0.57689   0.22341   0.08822   1.000
    N35     N    0.53227   0.21287   0.39554   1.000
    O36     O    0.55158   0.30823   0.41262   1.000
    O37     O    0.57704   0.27639   0.41185   1.000
    N38     N    0.50001   0.50002   0.99994   1.000
    O39     O    0.44783   0.25088   0.97596   1.000
    O40     O    0.38976   0.28261   0.99544   1.000
    O41     O    0.55219   0.74915   0.02396   1.000
    O42     O    0.61026   0.71743   0.00449   1.000
    N43     N    0.46774   0.78717   0.60442   1.000
    O44     O    0.44843   0.69181   0.58735   1.000
    O45     O    0.42297   0.72365   0.58811   1.000
    N46     N    0.50001   0.00002   0.49998   1.000
    O47     O    0.38981   0.21747   0.50451   1.000
    O48     O    0.55221   0.75102   0.47562   1.000
    O49     O    0.44781   0.24902   0.52434   1.000
    O50     O    0.61020   0.78256   0.49546   1.000
    N51     N    0.29067   0.85364   0.29526   1.000
    O52     O    0.27395   0.93694   0.16752   1.000
    O53     O    0.21733   0.95223   0.19259   1.000
    O54     O    0.32314   0.72196   0.41219   1.000
    O55     O    0.28991   0.70347   0.39722   1.000
    N56     N    0.78966   0.64629   0.20467   1.000
    O57     O    0.77288   0.56289   0.33242   1.000
    O58     O    0.82210   0.77805   0.08776   1.000
    O59     O    0.78885   0.79656   0.10273   1.000
    O60     O    0.71629   0.54773   0.30733   1.000
    N61     N    0.00001   0.50002   0.99998   1.000
    O62     O    0.94730   0.25110   0.97561   1.000
    O63     O    0.88932   0.28277   0.99549   1.000
    O64     O    0.05272   0.74894   0.02434   1.000
    O65     O    0.11070   0.71727   0.00448   1.000
    N66     N    0.03235   0.21378   0.39565   1.000
    O67     O    0.07740   0.27694   0.41189   1.000
    O68     O    0.05201   0.30894   0.41273   1.000
    N69     N    0.96768   0.71382   0.89560   1.000
    O70     O    0.94801   0.80897   0.91270   1.000
    O71     O    0.92263   0.77700   0.91185   1.000
    N72     N    0.00001   0.00002   0.49998   1.000
    O73     O    0.94729   0.24894   0.52435   1.000
    O74     O    0.88930   0.21727   0.50448   1.000
    O75     O    0.05272   0.75109   0.47562   1.000
    O76     O    0.11071   0.78276   0.49548   1.000
    N77     N    0.03234   0.28622   0.10436   1.000
    O78     O    0.07739   0.22304   0.08808   1.000
    O79     O    0.05200   0.19107   0.08723   1.000
    N80     N    0.21036   0.35375   0.79527   1.000
    O81     O    0.17791   0.22199   0.91218   1.000
    O82     O    0.21116   0.20347   0.89723   1.000
    O83     O    0.28373   0.45230   0.69262   1.000
    O84     O    0.22714   0.43715   0.66753   1.000
    N85     N    0.46794   0.71326   0.89529   1.000
    O86     O    0.42313   0.77664   0.91172   1.000
    O87     O    0.44855   0.80854   0.91248   1.000
    N88     N    0.96767   0.78626   0.60431   1.000
    O89     O    0.92262   0.72310   0.58807   1.000
    O90     O    0.94801   0.69110   0.58724   1.000
    N91     N    0.78957   0.85373   0.29525   1.000
    O92     O    0.82205   0.72199   0.41219   1.000
    O93     O    0.78880   0.70347   0.39722   1.000
    O94     O    0.71620   0.95221   0.19258   1.000
    O95     O    0.77282   0.93712   0.16753   1.000
loop_
    _geom_bond_atom_site_label_1
    _geom_bond_atom_site_label_2
    _geom_bond_distance
    _geom_bond_site_symmetry_2
    _ccdc_geom_bond_type
    N12    O13       3.56005      .   S
    Zr5    O13       4.49365      .   S
    N12    O14       3.28054      .   S
    Zr9    O14       3.81745      .   S
    N12    O15       3.36099      .   S
    Zr3    O15       4.37062  1_565   S
    N12    O16       3.52773      .   S
    Zr11   O16       4.48536  1_554   S
    N17    O18       3.36157      .   S
    Zr2    O18       4.37119  1_565   S
    N17    O19       3.56028      .   S
    Zr4    O19       4.49380      .   S
    N17    O20       3.28106      .   S
    Zr8    O20       3.81879      .   S
    N17    O21       3.52848      .   S
    Zr10   O21       4.48514  1_565   S
    N22    O23       3.52786      .   S
    Zr8    O23       4.48532      .   S
    N22    O24       3.36043      .   S
    Zr4    O24       4.36969      .   S
    N22    O25       3.56028      .   S
    Zr2    O25       4.49392  1_556   S
    N22    O26       3.28054      .   S
    Zr10   O26       3.81667  1_556   S
    N27    O28       3.52805      .   S
    Zr9    O28       4.48486      .   S
    N27    O29       3.36027      .   S
    Zr1    O29       4.36951      .   S
    N27    O30       3.56041      .   S
    Zr7    O30       4.49407  1_554   S
    N27    O31       3.28075      .   S
    Zr11   O31       3.81700  1_554   S
    N32    O33       1.32609      .   S
    Zr7    O33       2.13816      .   S
    N32    O34       1.31168      .   S
    Zr7    O34       2.16214      .   S
    N35    O36       1.32601      .   S
    Zr5    O36       2.13804      .   S
    N35    O37       1.31165      .   S
    Zr5    O37       2.16200      .   S
    N38    O39       3.34440      .   S
    Zr2    O39       4.35645  1_565   S
    N38    O40       3.59801      .   S
    Zr10   O40       4.62318  1_565   S
    N38    O41       3.34453  1_556   S
    Zr7    O41       4.35657  1_545   S
    N38    O42       3.59790  1_556   S
    Zr11   O42       4.62280  1_545   S
    N43    O44       1.32602      .   S
    Zr0    O44       2.13813      .   S
    N43    O45       1.31167      .   S
    Zr0    O45       2.16208      .   S
    N46    O47       3.59689      .   S
    Zr8    O47       4.62220      .   S
    N46    O48       3.34422  1_545   S
    Zr5    O48       4.35703      .   S
    N46    O49       3.34421      .   S
    Zr0    O49       4.35698      .   S
    N46    O50       3.59690  1_545   S
    Zr9    O50       4.62220      .   S
    N51    O52       3.52798      .   S
    Zr10   O52       4.48445  1_556   S
    N51    O53       3.36114      .   S
    Zr6    O53       4.37141  1_545   S
    N51    O54       3.56024      .   S
    Zr0    O54       4.49383      .   S
    N51    O55       3.28076      .   S
    Zr8    O55       3.81769      .   S
    N56    O57       3.52898      .   S
    Zr9    O57       4.48504      .   S
    N56    O58       3.56022      .   S
    Zr3    O58       4.49393  1_556   S
    N56    O59       3.28097      .   S
    Zr11   O59       3.81871  1_545   S
    N56    O60       3.36145      .   S
    Zr5    O60       4.37108      .   S
    N61    O62       3.34754  1_455   S
    Zr3    O62       4.36056  1_565   S
    N61    O63       3.60273  1_455   S
    Zr11   O63       4.63184  1_554   S
    N61    O64       3.34738  1_556   S
    Zr6    O64       4.36022  1_545   S
    N61    O65       3.60262  1_556   S
    Zr10   O65       4.63149  1_556   S
    N66    O67       1.31277      .   S
    Zr4    O67       2.16257      .   S
    N66    O68       1.32615      .   S
    Zr4    O68       2.14044      .   S
    N69    O70       1.32604      .   S
    Zr3    O70       2.14046      .   S
    N69    O71       1.31275      .   S
    Zr3    O71       2.16243      .   S
    N72    O73       3.34715  1_455   S
    Zr1    O73       4.36024      .   S
    N72    O74       3.60230  1_455   S
    Zr9    O74       4.63075      .   S
    N72    O75       3.34716  1_545   S
    Zr4    O75       4.36028      .   S
    N72    O76       3.60230  1_545   S
    Zr8    O76       4.63077      .   S
    N77    O78       1.31300      .   S
    Zr6    O78       2.16267      .   S
    N77    O79       1.32634      .   S
    Zr6    O79       2.14062      .   S
    N80    O81       3.56033      .   S
    Zr6    O81       4.49336  1_554   S
    N80    O82       3.28146      .   S
    Zr10   O82       3.81926  1_565   S
    N80    O83       3.36105      .   S
    Zr0    O83       4.37067      .   S
    N80    O84       3.52853      .   S
    Zr8    O84       4.48458      .   S
    N85    O86       1.31186      .   S
    Zr2    O86       2.16223      .   S
    N85    O87       1.32625      .   S
    Zr2    O87       2.13830      .   S
    N88    O89       1.31280      .   S
    Zr1    O89       2.16270      .   S
    N88    O90       1.32617      .   S
    Zr1    O90       2.14059      .   S
    N91    O92       3.56085      .   S
    Zr1    O92       4.49435      .   S
    N91    O93       3.28164      .   S
    Zr9    O93       3.81935      .   S
    N91    O94       3.36105      .   S
    Zr7    O94       4.37067  1_545   S
    N91    O95       3.52812      .   S
    Zr11   O95       4.48400  1_545   S
