# CIF file generated by openbabel 2.4.90, see http://openbabel.sf.net
data_I
_chemical_name_common ''
_cell_length_a 21.562
_cell_length_b 17.666
_cell_length_c 17.196
_cell_angle_alpha 89.986
_cell_angle_beta 89.955
_cell_angle_gamma 90.011
_space_group_name_H-M_alt 'P 1'
_space_group_name_Hall 'P 1'
loop_
    _symmetry_equiv_pos_as_xyz
    x,y,z
loop_
    _atom_site_label
    _atom_site_type_symbol
    _atom_site_fract_x
    _atom_site_fract_y
    _atom_site_fract_z
    _atom_site_occupancy
    H0      H    0.00530   0.29486   0.54915   1.000
    H1      H    0.50596   0.29513   0.54974   1.000
    H2      H    0.11408   0.09426   0.54177   1.000
    H3      H    0.61474   0.09442   0.54419   1.000
    H4      H    0.24373   0.70236   0.04988   1.000
    H5      H    0.74418   0.70301   0.04954   1.000
    H6      H    0.13513   0.90511   0.04154   1.000
    H7      H    0.63449   0.90440   0.04276   1.000
    H8      H    0.49443   0.79562   0.95010   1.000
    H9      H    0.99503   0.79549   0.95012   1.000
    H10     H    0.38504   0.59495   0.95520   1.000
    H11     H    0.88601   0.59480   0.95540   1.000
    H12     H    0.25547   0.20224   0.44964   1.000
    H13     H    0.75592   0.20234   0.44935   1.000
    H14     H    0.36472   0.40328   0.45546   1.000
    H15     H    0.86509   0.40431   0.45562   1.000
    O16     O    0.02414   0.31202   0.50000   1.000
    O17     O    0.52465   0.31204   0.50047   1.000
    O18     O    0.14431   0.12595   0.50765   1.000
    O19     O    0.64518   0.12558   0.50969   1.000
    O20     O    0.22497   0.68610   0.00048   1.000
    O21     O    0.72550   0.68669   0.00000   1.000
    O22     O    0.10488   0.87337   0.00781   1.000
    O23     O    0.60478   0.87285   0.00807   1.000
    O24     O    0.47546   0.81201   0.99946   1.000
    O25     O    0.97623   0.81231   0.99935   1.000
    O26     O    0.35486   0.62626   0.99013   1.000
    O27     O    0.85580   0.62597   0.99032   1.000
    O28     O    0.27418   0.18578   0.49903   1.000
    O29     O    0.77468   0.18600   0.49870   1.000
    O30     O    0.39472   0.37185   0.49029   1.000
    O31     O    0.89515   0.37276   0.49001   1.000
loop_
    _geom_bond_atom_site_label_1
    _geom_bond_atom_site_label_2
    _geom_bond_distance
    _geom_bond_site_symmetry_2
    _ccdc_geom_bond_type
    O20    H4        0.98410      .   S
    O22    H6        1.03768      .   S
    O23    H7        1.03800      .   S
    H5     O21       0.98566      .   S
    H13    O29       0.98358      .   S
    H12    O28       0.98441      .   S
    H14    O30       1.04217      .   S
    H15    O31       1.03972      .   S
    O16    H0        0.98520      .   S
    O17    H1        0.98427      .   S
    O18    H2        1.04002      .   S
    O19    H3        1.04159      .   S
    H8     O24       0.98554      .   S
    H9     O25       0.98437      .   S
    H10    O26       1.04396      .   S
    H11    O27       1.04302      .   S
