# CIF file generated by openbabel 2.4.90, see http://openbabel.sf.net
data_I
_chemical_name_common ''
_cell_length_a 21.562
_cell_length_b 17.666
_cell_length_c 17.196
_cell_angle_alpha 89.986
_cell_angle_beta 89.955
_cell_angle_gamma 90.011
_space_group_name_H-M_alt 'P 1'
_space_group_name_Hall 'P 1'
loop_
    _symmetry_equiv_pos_as_xyz
    x,y,z
loop_
    _atom_site_label
    _atom_site_type_symbol
    _atom_site_fract_x
    _atom_site_fract_y
    _atom_site_fract_z
    _atom_site_occupancy
    Zr0     Zr   0.08008   0.21251   0.48413   1.000
    Zr1     Zr   0.58114   0.21260   0.48648   1.000
    Zr2     Zr   0.28778   0.65982   0.91964   1.000
    Zr3     Zr   0.78879   0.65990   0.91986   1.000
    Zr4     Zr   0.33615   0.60276   0.10058   1.000
    Zr5     Zr   0.83693   0.60279   0.10067   1.000
    Zr6     Zr   0.16275   0.60361   0.01639   1.000
    Zr7     Zr   0.66387   0.60374   0.01621   1.000
    Zr8     Zr   0.17018   0.78695   0.98578   1.000
    Zr9     Zr   0.66945   0.78665   0.98590   1.000
    Zr10    Zr   0.46164   0.33755   0.41985   1.000
    Zr11    Zr   0.96176   0.33766   0.41908   1.000
    Zr12    Zr   0.41345   0.39658   0.60035   1.000
    Zr13    Zr   0.91432   0.39685   0.60015   1.000
    Zr14    Zr   0.08584   0.39418   0.51650   1.000
    Zr15    Zr   0.58669   0.39416   0.51650   1.000
    Zr16    Zr   0.41898   0.71277   0.01349   1.000
    Zr17    Zr   0.91995   0.71280   0.01359   1.000
    Zr18    Zr   0.21081   0.15960   0.57948   1.000
    Zr19    Zr   0.71219   0.15982   0.58003   1.000
    Zr20    Zr   0.16309   0.10264   0.39693   1.000
    Zr21    Zr   0.66410   0.10267   0.39919   1.000
    Zr22    Zr   0.33618   0.10338   0.48317   1.000
    Zr23    Zr   0.83727   0.10400   0.48300   1.000
    Zr24    Zr   0.33054   0.28486   0.51332   1.000
    Zr25    Zr   0.82975   0.28687   0.51330   1.000
    Zr26    Zr   0.03919   0.83822   0.08000   1.000
    Zr27    Zr   0.53860   0.83762   0.07989   1.000
    Zr28    Zr   0.08574   0.89671   0.89708   1.000
    Zr29    Zr   0.58640   0.89646   0.89713   1.000
    Zr30    Zr   0.41340   0.89403   0.98333   1.000
    Zr31    Zr   0.91433   0.89443   0.98295   1.000
    N32     N    0.45796   0.11701   0.73407   1.000
    O33     O    0.44367   0.23268   0.67957   1.000
    O34     O    0.40632   0.18447   0.64306   1.000
    O35     O    0.50701   0.15915   0.63442   1.000
    O36     O    0.50686   0.02575   0.80877   1.000
    O37     O    0.43828   0.02591   0.83959   1.000
    N38     N    0.95793   0.11725   0.73261   1.000
    O39     O    0.94427   0.23281   0.67814   1.000
    O40     O    0.90584   0.18545   0.64232   1.000
    O41     O    0.00633   0.15879   0.63227   1.000
    O42     O    0.00662   0.02580   0.80727   1.000
    O43     O    0.93868   0.02657   0.83893   1.000
    N44     N    0.54161   0.61722   0.76554   1.000
    O45     O    0.49345   0.65869   0.86609   1.000
    O46     O    0.55547   0.73279   0.81956   1.000
    O47     O    0.59360   0.68563   0.85595   1.000
    O48     O    0.49285   0.52577   0.69035   1.000
    O49     O    0.56149   0.52611   0.66010   1.000
    N50     N    0.04194   0.61763   0.76524   1.000
    O51     O    0.99358   0.65936   0.86548   1.000
    O52     O    0.05573   0.73302   0.81935   1.000
    O53     O    0.09417   0.68586   0.85580   1.000
    O54     O    0.99298   0.52660   0.68991   1.000
    O55     O    0.06121   0.52630   0.65990   1.000
    N56     N    0.70858   0.38149   0.26515   1.000
    O57     O    0.69443   0.26610   0.31988   1.000
    O58     O    0.65686   0.31365   0.35635   1.000
    O59     O    0.75737   0.47325   0.19026   1.000
    O60     O    0.68895   0.47194   0.15929   1.000
    O61     O    0.75699   0.33976   0.36503   1.000
    N62     N    0.20833   0.38160   0.26536   1.000
    O63     O    0.19420   0.26612   0.31938   1.000
    O64     O    0.15630   0.31356   0.35546   1.000
    O65     O    0.25681   0.47343   0.19033   1.000
    O66     O    0.18818   0.47222   0.15990   1.000
    O67     O    0.25689   0.33932   0.36530   1.000
    N68     N    0.30176   0.91824   0.76499   1.000
    O69     O    0.24945   0.86745   0.85655   1.000
    O70     O    0.26644   0.01845   0.68666   1.000
    O71     O    0.32074   0.99620   0.64835   1.000
    O72     O    0.30012   0.80919   0.82374   1.000
    O73     O    0.34401   0.88630   0.86100   1.000
    O74     O    0.21282   0.91439   0.81680   1.000
    N75     N    0.80242   0.91845   0.76565   1.000
    O76     O    0.74969   0.86731   0.85693   1.000
    O77     O    0.76740   0.01900   0.68776   1.000
    O78     O    0.82133   0.99658   0.64869   1.000
    O79     O    0.80104   0.80935   0.82426   1.000
    O80     O    0.84455   0.88668   0.86155   1.000
    O81     O    0.71343   0.91424   0.81711   1.000
    N82     N    0.79154   0.88170   0.23366   1.000
    O83     O    0.81178   0.97234   0.33934   1.000
    O84     O    0.80572   0.76632   0.17892   1.000
    O85     O    0.84365   0.81381   0.14300   1.000
    O86     O    0.74256   0.83974   0.13413   1.000
    O87     O    0.74319   0.97331   0.30910   1.000
    N88     N    0.29124   0.88175   0.23360   1.000
    O89     O    0.31100   0.97221   0.33934   1.000
    O90     O    0.30567   0.76629   0.17937   1.000
    O91     O    0.34287   0.81409   0.14259   1.000
    O92     O    0.24279   0.83988   0.13399   1.000
    O93     O    0.24240   0.97297   0.30853   1.000
    N94     N    0.19806   0.41812   0.73353   1.000
    O95     O    0.28681   0.41453   0.68123   1.000
    O96     O    0.25088   0.36617   0.64265   1.000
    O97     O    0.23294   0.51868   0.81168   1.000
    O98     O    0.17899   0.49612   0.85062   1.000
    O99     O    0.19906   0.30899   0.67502   1.000
    O100    O    0.15589   0.38644   0.63764   1.000
    N101    N    0.69855   0.41870   0.73368   1.000
    O102    O    0.78753   0.41443   0.68171   1.000
    O103    O    0.75076   0.36758   0.64242   1.000
    O104    O    0.73366   0.51902   0.81192   1.000
    O105    O    0.67947   0.49694   0.85036   1.000
    O106    O    0.70000   0.30949   0.67529   1.000
    O107    O    0.65653   0.38673   0.63780   1.000
    N108    N    0.05174   0.58035   0.23433   1.000
    O109    O    0.96308   0.58459   0.18229   1.000
    O110    O    0.99922   0.63202   0.14328   1.000
    O111    O    0.01631   0.47927   0.31195   1.000
    O112    O    0.07058   0.50204   0.35115   1.000
    O113    O    0.05097   0.68933   0.17574   1.000
    O114    O    0.09334   0.61173   0.13796   1.000
    N115    N    0.55138   0.57956   0.23382   1.000
    O116    O    0.49846   0.63208   0.14345   1.000
    O117    O    0.51651   0.47881   0.31191   1.000
    O118    O    0.57039   0.50161   0.35085   1.000
    O119    O    0.55066   0.68859   0.17535   1.000
    O120    O    0.59354   0.61116   0.13764   1.000
    O121    O    0.46267   0.58351   0.18138   1.000
    N122    N    0.94781   0.08036   0.26447   1.000
    O123    O    0.92923   0.00203   0.14798   1.000
    O124    O    0.94903   0.18930   0.32294   1.000
    O125    O    0.90631   0.11201   0.36079   1.000
    O126    O    0.03656   0.08445   0.31634   1.000
    O127    O    0.00053   0.13227   0.35495   1.000
    O128    O    0.98304   0.97936   0.18709   1.000
    N129    N    0.44894   0.07953   0.26553   1.000
    O130    O    0.48373   0.97878   0.18768   1.000
    O131    O    0.42983   0.00157   0.14873   1.000
    O132    O    0.44992   0.18842   0.32273   1.000
    O133    O    0.50162   0.13126   0.35686   1.000
    O134    O    0.40652   0.11113   0.36166   1.000
    O135    O    0.53776   0.08406   0.31761   1.000
    C136    C    0.12001   0.88924   0.02468   1.000
    O137    O    0.09602   0.87252   0.03429   1.000
    O138    O    0.12877   0.85970   0.01074   1.000
    O139    O    0.10766   0.88714   0.98856   1.000
    C140    C    0.61963   0.88863   0.02542   1.000
    O141    O    0.59566   0.87193   0.03470   1.000
    O142    O    0.62837   0.85919   0.01120   1.000
    O143    O    0.60761   0.88664   0.98901   1.000
    C144    C    0.23435   0.69423   0.02518   1.000
    O145    O    0.24536   0.68359   0.99262   1.000
    O146    O    0.21410   0.66954   0.01681   1.000
    O147    O    0.21596   0.71538   0.00915   1.000
    C148    C    0.73484   0.69485   0.02477   1.000
    O149    O    0.71476   0.67004   0.01644   1.000
    O150    O    0.71616   0.71576   0.00886   1.000
    O151    O    0.74599   0.68408   0.99235   1.000
    C152    C    0.48495   0.80382   0.97478   1.000
    O153    O    0.46608   0.78310   0.99063   1.000
    O154    O    0.49599   0.81432   0.00723   1.000
    O155    O    0.46469   0.82842   0.98309   1.000
    C156    C    0.98563   0.80390   0.97474   1.000
    O157    O    0.96546   0.82863   0.98294   1.000
    O158    O    0.96686   0.78323   0.99060   1.000
    O159    O    0.99667   0.81458   0.00721   1.000
    C160    C    0.36995   0.61060   0.97267   1.000
    O161    O    0.35773   0.61255   0.00901   1.000
    O162    O    0.37844   0.64006   0.98724   1.000
    O163    O    0.34564   0.62682   0.96378   1.000
    C164    C    0.87090   0.61038   0.97286   1.000
    O165    O    0.85863   0.61238   0.00918   1.000
    O166    O    0.87939   0.63989   0.98741   1.000
    O167    O    0.84660   0.62666   0.96398   1.000
    C168    C    0.37972   0.38757   0.47287   1.000
    O169    O    0.39190   0.38589   0.50910   1.000
    O170    O    0.37117   0.35796   0.48734   1.000
    O171    O    0.40395   0.37113   0.46397   1.000
    C172    C    0.88012   0.38854   0.47282   1.000
    O173    O    0.89243   0.38667   0.50895   1.000
    O174    O    0.87129   0.35918   0.48724   1.000
    O175    O    0.90429   0.37187   0.46368   1.000
    C176    C    0.12919   0.11010   0.52471   1.000
    O177    O    0.15338   0.12644   0.53414   1.000
    O178    O    0.12069   0.13967   0.51030   1.000
    O179    O    0.14145   0.11220   0.48850   1.000
    C180    C    0.01472   0.30344   0.52458   1.000
    O181    O    0.00384   0.31414   0.49206   1.000
    O182    O    0.03342   0.28286   0.50832   1.000
    O183    O    0.03486   0.32827   0.51641   1.000
    C184    C    0.51530   0.30358   0.52511   1.000
    O185    O    0.53549   0.32834   0.51680   1.000
    O186    O    0.53410   0.28295   0.50929   1.000
    O187    O    0.50422   0.31419   0.49263   1.000
    C188    C    0.62996   0.11000   0.52694   1.000
    O189    O    0.65432   0.12635   0.53590   1.000
    O190    O    0.64230   0.11206   0.49069   1.000
    O191    O    0.62156   0.13954   0.51251   1.000
    C192    C    0.26483   0.19401   0.47434   1.000
    O193    O    0.25366   0.18335   0.50680   1.000
    O194    O    0.28359   0.21466   0.49026   1.000
    O195    O    0.28500   0.16929   0.48272   1.000
    C196    C    0.76530   0.19417   0.47403   1.000
    O197    O    0.78376   0.21530   0.49001   1.000
    O198    O    0.78564   0.16959   0.48244   1.000
    O199    O    0.75437   0.18354   0.50670   1.000
loop_
    _geom_bond_atom_site_label_1
    _geom_bond_atom_site_label_2
    _geom_bond_distance
    _geom_bond_site_symmetry_2
    _ccdc_geom_bond_type
    N32    O33       2.26911      .   S
    Zr12   O33       3.26563      .   S
    N32    O34       2.26094      .   S
    Zr24   O34       3.28596      .   S
    N32    O35       2.14613      .   S
    Zr1    O35       3.14795      .   S
    N32    O36       2.31573      .   S
    Zr29   O36       3.23595  1_565   S
    N32    O37       2.46170      .   S
    Zr30   O37       3.43785  1_565   S
    N38    O39       2.26526      .   S
    Zr13   O39       3.25789      .   S
    N38    O40       2.26396      .   S
    Zr25   O40       3.29084      .   S
    N38    O41       2.14505  1_655   S
    Zr0    O41       3.14805      .   S
    N38    O42       2.31573  1_655   S
    Zr28   O42       3.24029  1_565   S
    N38    O43       2.46544      .   S
    Zr31   O43       3.44285  1_565   S
    N44    O45       2.14539      .   S
    Zr16   O45       3.14813  1_554   S
    N44    O46       2.26300      .   S
    Zr29   O46       3.25375      .   S
    N44    O47       2.26661      .   S
    Zr9    O47       3.29539      .   S
    N44    O48       2.32154      .   S
    Zr12   O48       3.24645      .   S
    N44    O49       2.46223      .   S
    Zr15   O49       3.43915      .   S
    N50    O51       2.14474  1_455   S
    Zr17   O51       3.14545  1_554   S
    N50    O52       2.26071      .   S
    Zr28   O52       3.25119      .   S
    N50    O53       2.26918      .   S
    Zr8    O53       3.29825      .   S
    N50    O54       2.31971  1_455   S
    Zr13   O54       3.24304      .   S
    N50    O55       2.46134      .   S
    Zr14   O55       3.43678      .   S
    N56    O57       2.26553      .   S
    Zr21   O57       3.25881      .   S
    N56    O58       2.26626      .   S
    Zr1    O58       3.29399      .   S
    N56    O59       2.32138      .   S
    Zr5    O59       3.24736      .   S
    N56    O60       2.45885      .   S
    Zr7    O60       3.43039      .   S
    N56    O61       2.14142      .   S
    Zr25   O61       3.13690      .   S
    N62    O63       2.26195      .   S
    Zr20   O63       3.25024      .   S
    N62    O64       2.25832      .   S
    Zr0    O64       3.28241      .   S
    N62    O65       2.32056      .   S
    Zr4    O65       3.24360      .   S
    N62    O66       2.45769      .   S
    Zr6    O66       3.43200      .   S
    N62    O67       2.14719      .   S
    Zr24   O67       3.15137      .   S
    N68    O69       2.13362      .   S
    Zr8    O69       3.14226      .   S
    N68    O70       2.35155  1_565   S
    Zr18   O70       3.32495      .   S
    N68    O71       2.46666      .   S
    Zr22   O71       3.42925  1_545   S
    N68    O72       2.17528      .   S
    Zr2    O72       3.12258      .   S
    N68    O73       1.96877      .   S
    Zr30   O73       2.58602      .   S
    N68    O74       2.11500      .   S
    Zr28   O74       3.08319      .   S
    N75    O76       2.13746      .   S
    Zr9    O76       3.15174      .   S
    N75    O77       2.34957  1_565   S
    Zr19   O77       3.32259      .   S
    N75    O78       2.47265      .   S
    Zr23   O78       3.43987  1_545   S
    N75    O79       2.17501      .   S
    Zr3    O79       3.12076      .   S
    N75    O80       1.96519      .   S
    Zr31   O80       2.57785      .   S
    N75    O81       2.11364      .   S
    Zr29   O81       3.08008      .   S
    N82    O83       2.46165      .   S
    Zr23   O83       3.43794  1_545   S
    N82    O84       2.26607      .   S
    Zr5    O84       3.25727      .   S
    N82    O85       2.26488      .   S
    Zr17   O85       3.29242      .   S
    N82    O86       2.14407      .   S
    Zr9    O86       3.14143  1_556   S
    N82    O87       2.32136      .   S
    Zr21   O87       3.24492  1_545   S
    N88    O89       2.45850      .   S
    Zr22   O89       3.43308  1_545   S
    N88    O90       2.26445      .   S
    Zr4    O90       3.25807      .   S
    N88    O91       2.26187      .   S
    Zr16   O91       3.28977      .   S
    N88    O92       2.13906      .   S
    Zr8    O92       3.13489  1_556   S
    N88    O93       2.31636      .   S
    Zr20   O93       3.23760  1_545   S
    N94    O95       2.11468      .   S
    Zr12   O95       3.08000      .   S
    N94    O96       2.14007      .   S
    Zr24   O96       3.15532      .   S
    N94    O97       2.35145      .   S
    Zr2    O97       3.32669      .   S
    N94    O98       2.47431      .   S
    Zr6    O98       3.44318  1_554   S
    N94    O99       2.17491      .   S
    Zr18   O99       3.11936      .   S
    N94    O100      1.96509      .   S
    Zr14   O100      2.57768      .   S
    N101   O102      2.11710      .   S
    Zr13   O102      3.08736      .   S
    N101   O103      2.13157      .   S
    Zr25   O103      3.14009      .   S
    N101   O104      2.35083      .   S
    Zr3    O104      3.32522      .   S
    N101   O105      2.47099      .   S
    Zr7    O105      3.43634  1_554   S
    N101   O106      2.17542      .   S
    Zr19   O106      3.12175      .   S
    N101   O107      1.96492      .   S
    Zr15   O107      2.57693      .   S
    N108   O109      2.11280  1_455   S
    Zr5    O109      3.07875      .   S
    N108   O110      2.13766  1_455   S
    Zr17   O110      3.15233      .   S
    N108   O111      2.35595      .   S
    Zr11   O111      3.32096  1_655   S
    N108   O112      2.47278      .   S
    Zr14   O112      3.43842      .   S
    N108   O113      2.17282      .   S
    Zr26   O113      3.11325      .   S
    N108   O114      1.96333      .   S
    Zr6    O114      2.57418      .   S
    N115   O116      2.14022      .   S
    Zr16   O116      3.15721      .   S
    N115   O117      2.35219      .   S
    Zr10   O117      3.32652      .   S
    N115   O118      2.47281      .   S
    Zr15   O118      3.44083      .   S
    N115   O119      2.17264      .   S
    Zr27   O119      3.11329      .   S
    N115   O120      1.96728      .   S
    Zr7    O120      2.58315      .   S
    N115   O121      2.11643      .   S
    Zr4    O121      3.08136      .   S
    N122   O123      2.46788      .   S
    Zr31   O123      3.43130  1_566   S
    N122   O124      2.17179      .   S
    Zr11   O124      3.11131      .   S
    N122   O125      1.96332      .   S
    Zr23   O125      2.57837      .   S
    N122   O126      2.11315  1_655   S
    Zr20   O126      3.07785      .   S
    N122   O127      2.13476  1_655   S
    Zr0    O127      3.14519      .   S
    N122   O128      2.35181  1_545   S
    Zr26   O128      3.32770  1_455   S
    N129   O130      2.35019  1_545   S
    Zr27   O130      3.32470      .   S
    N129   O131      2.47046      .   S
    Zr30   O131      3.43921  1_566   S
    N129   O132      2.16077      .   S
    Zr10   O132      3.13000      .   S
    N129   O133      2.14366      .   S
    Zr1    O133      3.15896      .   S
    N129   O134      1.96955      .   S
    Zr22   O134      2.58448      .   S
    N129   O135      2.11647      .   S
    Zr21   O135      3.08263      .   S
    C136   O137      0.61793      .   S
    Zr26   O137      1.57622      .   S
    C136   O138      0.60454      .   S
    Zr8    O138      1.62266  1_556   S
    C136   O139      0.67692  1_554   S
    Zr28   O139      1.65159      .   S
    C140   O141      0.61598      .   S
    Zr27   O141      1.57580      .   S
    C140   O142      0.60480      .   S
    Zr9    O142      1.61746  1_556   S
    C140   O143      0.67869  1_554   S
    Zr29   O143      1.65420      .   S
    C144   O145      0.63643  1_554   S
    Zr2    O145      1.60829      .   S
    C144   O146      0.63368      .   S
    Zr6    O146      1.60694      .   S
    C144   O147      0.61065      .   S
    Zr8    O147      1.65400  1_556   S
    C148   O149      0.63260      .   S
    Zr7    O149      1.60475      .   S
    C148   O150      0.61134      .   S
    Zr9    O150      1.65504  1_556   S
    C148   O151      0.63618  1_554   S
    Zr3    O151      1.60817      .   S
    C152   O153      0.61097      .   S
    Zr16   O153      1.65182  1_554   S
    C152   O154      0.63456  1_556   S
    Zr27   O154      1.60524      .   S
    C152   O155      0.63255      .   S
    Zr30   O155      1.60219      .   S
    C156   O157      0.63256      .   S
    Zr31   O157      1.60211      .   S
    C156   O158      0.60939      .   S
    Zr17   O158      1.65106  1_554   S
    C156   O159      0.63583  1_556   S
    Zr26   O159      1.60741  1_455   S
    C160   O161      0.67898  1_556   S
    Zr4    O161      1.65065      .   S
    C160   O162      0.60593      .   S
    Zr16   O162      1.61825  1_554   S
    C160   O163      0.61683      .   S
    Zr2    O163      1.57274      .   S
    C164   O165      0.67898  1_556   S
    Zr5    O165      1.64977      .   S
    C164   O166      0.60643      .   S
    Zr17   O166      1.62090  1_554   S
    C164   O167      0.61711      .   S
    Zr3    O167      1.57340      .   S
    C168   O169      0.67685      .   S
    Zr12   O169      1.64777      .   S
    C168   O170      0.60758      .   S
    Zr24   O170      1.62282      .   S
    C168   O171      0.61693      .   S
    Zr10   O171      1.57284      .   S
    C172   O173      0.67661      .   S
    Zr13   O173      1.64801      .   S
    C172   O174      0.60550      .   S
    Zr25   O174      1.62273      .   S
    C172   O175      0.61873      .   S
    Zr11   O175      1.57742      .   S
    C176   O177      0.61770      .   S
    Zr18   O177      1.57675      .   S
    C176   O178      0.60645      .   S
    Zr0    O178      1.62058      .   S
    C176   O179      0.67722      .   S
    Zr20   O179      1.65070      .   S
    C180   O181      0.63533      .   S
    Zr11   O181      1.60378  1_655   S
    C180   O182      0.61059      .   S
    Zr0    O182      1.65219      .   S
    C180   O183      0.63276      .   S
    Zr14   O183      1.60112      .   S
    C184   O185      0.63318      .   S
    Zr15   O185      1.60330      .   S
    C184   O186      0.60910      .   S
    Zr1    O186      1.65145      .   S
    C184   O187      0.63574      .   S
    Zr10   O187      1.60677      .   S
    C188   O189      0.61902      .   S
    Zr19   O189      1.57594      .   S
    C188   O190      0.67856      .   S
    Zr21   O190      1.65022      .   S
    C188   O191      0.60565      .   S
    Zr1    O191      1.62062      .   S
    C192   O193      0.63617      .   S
    Zr18   O193      1.60926      .   S
    C192   O194      0.60993      .   S
    Zr24   O194      1.64932      .   S
    C192   O195      0.63308      .   S
    Zr22   O195      1.60435      .   S
    C196   O197      0.61115      .   S
    Zr25   O197      1.65615      .   S
    C196   O198      0.63399      .   S
    Zr23   O198      1.60694      .   S
    C196   O199      0.63733      .   S
    Zr19   O199      1.60963      .   S
