# CIF file generated by openbabel 2.4.90, see http://openbabel.sf.net
data_I
_chemical_name_common ''
_cell_length_a 21.562
_cell_length_b 17.666
_cell_length_c 17.196
_cell_angle_alpha 89.986
_cell_angle_beta 89.955
_cell_angle_gamma 90.011
_space_group_name_H-M_alt 'P 1'
_space_group_name_Hall 'P 1'
loop_
    _symmetry_equiv_pos_as_xyz
    x,y,z
loop_
    _atom_site_label
    _atom_site_type_symbol
    _atom_site_fract_x
    _atom_site_fract_y
    _atom_site_fract_z
    _atom_site_occupancy
    Zr0     Zr   0.08008   0.21251   0.48413   1.000
    Zr1     Zr   0.58114   0.21260   0.48648   1.000
    Zr2     Zr   0.28778   0.65982   0.91964   1.000
    Zr3     Zr   0.78879   0.65990   0.91986   1.000
    Zr4     Zr   0.33615   0.60276   0.10058   1.000
    Zr5     Zr   0.83693   0.60279   0.10067   1.000
    Zr6     Zr   0.16275   0.60361   0.01639   1.000
    Zr7     Zr   0.66387   0.60374   0.01621   1.000
    Zr8     Zr   0.17018   0.78695   0.98578   1.000
    Zr9     Zr   0.66945   0.78665   0.98590   1.000
    Zr10    Zr   0.46164   0.33755   0.41985   1.000
    Zr11    Zr   0.96176   0.33766   0.41908   1.000
    Zr12    Zr   0.41345   0.39658   0.60035   1.000
    Zr13    Zr   0.91432   0.39685   0.60015   1.000
    Zr14    Zr   0.08584   0.39418   0.51650   1.000
    Zr15    Zr   0.58669   0.39416   0.51650   1.000
    Zr16    Zr   0.41898   0.71277   0.01349   1.000
    Zr17    Zr   0.91995   0.71280   0.01359   1.000
    Zr18    Zr   0.21081   0.15960   0.57948   1.000
    Zr19    Zr   0.71219   0.15982   0.58003   1.000
    Zr20    Zr   0.16309   0.10264   0.39693   1.000
    Zr21    Zr   0.66410   0.10267   0.39919   1.000
    Zr22    Zr   0.33618   0.10338   0.48317   1.000
    Zr23    Zr   0.83727   0.10400   0.48300   1.000
    Zr24    Zr   0.33054   0.28486   0.51332   1.000
    Zr25    Zr   0.82975   0.28687   0.51330   1.000
    Zr26    Zr   0.03919   0.83822   0.08000   1.000
    Zr27    Zr   0.53860   0.83762   0.07989   1.000
    Zr28    Zr   0.08574   0.89671   0.89708   1.000
    Zr29    Zr   0.58640   0.89646   0.89713   1.000
    Zr30    Zr   0.41340   0.89403   0.98333   1.000
    Zr31    Zr   0.91433   0.89443   0.98295   1.000
    Zr32    Zr   0.00530   0.29486   0.54915   1.000
    Zr33    Zr   0.50596   0.29513   0.54974   1.000
    Zr34    Zr   0.11408   0.09426   0.54177   1.000
    Zr35    Zr   0.61474   0.09442   0.54419   1.000
    Zr36    Zr   0.24373   0.70236   0.04988   1.000
    Zr37    Zr   0.74418   0.70301   0.04954   1.000
    Zr38    Zr   0.13513   0.90511   0.04154   1.000
    Zr39    Zr   0.63449   0.90440   0.04276   1.000
    Zr40    Zr   0.49443   0.79562   0.95010   1.000
    Zr41    Zr   0.99503   0.79549   0.95012   1.000
    Zr42    Zr   0.38504   0.59495   0.95520   1.000
    Zr43    Zr   0.88601   0.59480   0.95540   1.000
    Zr44    Zr   0.25547   0.20224   0.44964   1.000
    Zr45    Zr   0.75592   0.20234   0.44935   1.000
    Zr46    Zr   0.36472   0.40328   0.45546   1.000
    Zr47    Zr   0.86509   0.40431   0.45562   1.000
    Zr48    Zr   0.02414   0.31202   0.50000   1.000
    Zr49    Zr   0.52465   0.31204   0.50047   1.000
    Zr50    Zr   0.14431   0.12595   0.50765   1.000
    Zr51    Zr   0.64518   0.12558   0.50969   1.000
    Zr52    Zr   0.22497   0.68610   0.00048   1.000
    Zr53    Zr   0.72550   0.68669   0.00000   1.000
    Zr54    Zr   0.10488   0.87337   0.00781   1.000
    Zr55    Zr   0.60478   0.87285   0.00807   1.000
    Zr56    Zr   0.47546   0.81201   0.99946   1.000
    Zr57    Zr   0.97623   0.81231   0.99935   1.000
    Zr58    Zr   0.35486   0.62626   0.99013   1.000
    Zr59    Zr   0.85580   0.62597   0.99032   1.000
    Zr60    Zr   0.27418   0.18578   0.49903   1.000
    Zr61    Zr   0.77468   0.18600   0.49870   1.000
    Zr62    Zr   0.39472   0.37185   0.49029   1.000
    Zr63    Zr   0.89515   0.37276   0.49001   1.000
    O64     O    0.23435   0.69423   0.02518   1.000
    O65     O    0.25637   0.67296   0.96006   1.000
    O66     O    0.12001   0.88924   0.02468   1.000
    O67     O    0.07204   0.85580   0.04391   1.000
    O68     O    0.61963   0.88863   0.02542   1.000
    O69     O    0.57169   0.85524   0.04398   1.000
    O70     O    0.73484   0.69485   0.02477   1.000
    O71     O    0.92846   0.35521   0.45455   1.000
    O72     O    0.99295   0.32484   0.45954   1.000
    O73     O    0.42818   0.35470   0.45507   1.000
    O74     O    0.76530   0.19417   0.47403   1.000
    O75     O    0.26483   0.19401   0.47434   1.000
    O76     O    0.37972   0.38757   0.47287   1.000
    O77     O    0.88012   0.38854   0.47282   1.000
    O78     O    0.30518   0.14458   0.49110   1.000
    O79     O    0.74343   0.17291   0.53937   1.000
    O80     O    0.01472   0.30344   0.52458   1.000
    O81     O    0.55567   0.35310   0.50848   1.000
    O82     O    0.51530   0.30358   0.52511   1.000
    O83     O    0.12919   0.11010   0.52471   1.000
    O84     O    0.17756   0.14277   0.54357   1.000
    O85     O    0.62996   0.11000   0.52694   1.000
    O86     O    0.67868   0.14270   0.54486   1.000
    O87     O    0.32132   0.64304   0.95489   1.000
    O88     O    0.82229   0.64294   0.95509   1.000
    O89     O    0.75715   0.67330   0.95993   1.000
    O90     O    0.48495   0.80382   0.97478   1.000
    O91     O    0.98563   0.80390   0.97474   1.000
    O92     O    0.36995   0.61060   0.97267   1.000
    O93     O    0.87090   0.61038   0.97286   1.000
    O94     O    0.94528   0.85337   0.99115   1.000
    O95     O    0.44443   0.85302   0.99140   1.000
    O96     O    0.05211   0.26227   0.49207   1.000
    O97     O    0.05499   0.35310   0.50825   1.000
    O98     O    0.55290   0.26232   0.49347   1.000
    O99     O    0.49314   0.32480   0.46016   1.000
    O100    O    0.11220   0.16923   0.49589   1.000
    O101    O    0.15370   0.11429   0.45229   1.000
    O102    O    0.61316   0.16909   0.49809   1.000
    O103    O    0.65464   0.11412   0.45444   1.000
    O104    O    0.19386   0.64485   0.00844   1.000
    O105    O    0.19757   0.73653   0.99313   1.000
    O106    O    0.69469   0.64522   0.00811   1.000
    O107    O    0.69748   0.73667   0.99295   1.000
    O108    O    0.13753   0.83016   0.99680   1.000
    O109    O    0.09531   0.88504   0.95245   1.000
    O110    O    0.63712   0.82975   0.99699   1.000
    O111    O    0.59559   0.88465   0.95260   1.000
    O112    O    0.44722   0.76239   0.00647   1.000
    O113    O    0.50703   0.82482   0.03968   1.000
    O114    O    0.94809   0.76256   0.00647   1.000
    O115    O    0.00771   0.82527   0.03968   1.000
    O116    O    0.34550   0.61451   0.04536   1.000
    O117    O    0.38692   0.66951   0.00181   1.000
    O118    O    0.84636   0.61438   0.04549   1.000
    O119    O    0.88787   0.66939   0.00196   1.000
    O120    O    0.24250   0.17269   0.53926   1.000
    O121    O    0.30236   0.23532   0.50618   1.000
    O122    O    0.80597   0.14500   0.49085   1.000
    O123    O    0.80221   0.23644   0.50600   1.000
    O124    O    0.40409   0.38422   0.54532   1.000
    O125    O    0.36263   0.32836   0.50181   1.000
    O126    O    0.90473   0.38481   0.54508   1.000
    O127    O    0.86245   0.32982   0.50166   1.000
    N128    N    0.45796   0.11701   0.73407   1.000
    O129    O    0.44367   0.23268   0.67957   1.000
    O130    O    0.40632   0.18447   0.64306   1.000
    O131    O    0.50701   0.15915   0.63442   1.000
    O132    O    0.50686   0.02575   0.80877   1.000
    O133    O    0.43828   0.02591   0.83959   1.000
    N134    N    0.95793   0.11725   0.73261   1.000
    O135    O    0.94427   0.23281   0.67814   1.000
    O136    O    0.90584   0.18545   0.64232   1.000
    O137    O    0.00633   0.15879   0.63227   1.000
    O138    O    0.00662   0.02580   0.80727   1.000
    O139    O    0.93868   0.02657   0.83893   1.000
    N140    N    0.54161   0.61722   0.76554   1.000
    O141    O    0.49345   0.65869   0.86609   1.000
    O142    O    0.55547   0.73279   0.81956   1.000
    O143    O    0.59360   0.68563   0.85595   1.000
    O144    O    0.49285   0.52577   0.69035   1.000
    O145    O    0.56149   0.52611   0.66010   1.000
    N146    N    0.04194   0.61763   0.76524   1.000
    O147    O    0.99358   0.65936   0.86548   1.000
    O148    O    0.05573   0.73302   0.81935   1.000
    O149    O    0.09417   0.68586   0.85580   1.000
    O150    O    0.99298   0.52660   0.68991   1.000
    O151    O    0.06121   0.52630   0.65990   1.000
    N152    N    0.70858   0.38149   0.26515   1.000
    O153    O    0.69443   0.26610   0.31988   1.000
    O154    O    0.65686   0.31365   0.35635   1.000
    O155    O    0.75737   0.47325   0.19026   1.000
    O156    O    0.68895   0.47194   0.15929   1.000
    O157    O    0.75699   0.33976   0.36503   1.000
    N158    N    0.20833   0.38160   0.26536   1.000
    O159    O    0.19420   0.26612   0.31938   1.000
    O160    O    0.15630   0.31356   0.35546   1.000
    O161    O    0.25681   0.47343   0.19033   1.000
    O162    O    0.18818   0.47222   0.15990   1.000
    O163    O    0.25689   0.33932   0.36530   1.000
    N164    N    0.30176   0.91824   0.76499   1.000
    O165    O    0.24945   0.86745   0.85655   1.000
    O166    O    0.26644   0.01845   0.68666   1.000
    O167    O    0.32074   0.99620   0.64835   1.000
    O168    O    0.30012   0.80919   0.82374   1.000
    O169    O    0.34401   0.88630   0.86100   1.000
    O170    O    0.21282   0.91439   0.81680   1.000
    N171    N    0.80242   0.91845   0.76565   1.000
    O172    O    0.74969   0.86731   0.85693   1.000
    O173    O    0.76740   0.01900   0.68776   1.000
    O174    O    0.82133   0.99658   0.64869   1.000
    O175    O    0.80104   0.80935   0.82426   1.000
    O176    O    0.84455   0.88668   0.86155   1.000
    O177    O    0.71343   0.91424   0.81711   1.000
    N178    N    0.79154   0.88170   0.23366   1.000
    O179    O    0.81178   0.97234   0.33934   1.000
    O180    O    0.80572   0.76632   0.17892   1.000
    O181    O    0.84365   0.81381   0.14300   1.000
    O182    O    0.74256   0.83974   0.13413   1.000
    O183    O    0.74319   0.97331   0.30910   1.000
    N184    N    0.29124   0.88175   0.23360   1.000
    O185    O    0.31100   0.97221   0.33934   1.000
    O186    O    0.30567   0.76629   0.17937   1.000
    O187    O    0.34287   0.81409   0.14259   1.000
    O188    O    0.24279   0.83988   0.13399   1.000
    O189    O    0.24240   0.97297   0.30853   1.000
    N190    N    0.19806   0.41812   0.73353   1.000
    O191    O    0.28681   0.41453   0.68123   1.000
    O192    O    0.25088   0.36617   0.64265   1.000
    O193    O    0.23294   0.51868   0.81168   1.000
    O194    O    0.17899   0.49612   0.85062   1.000
    O195    O    0.19906   0.30899   0.67502   1.000
    O196    O    0.15589   0.38644   0.63764   1.000
    N197    N    0.69855   0.41870   0.73368   1.000
    O198    O    0.78753   0.41443   0.68171   1.000
    O199    O    0.75076   0.36758   0.64242   1.000
    O200    O    0.73366   0.51902   0.81192   1.000
    O201    O    0.67947   0.49694   0.85036   1.000
    O202    O    0.70000   0.30949   0.67529   1.000
    O203    O    0.65653   0.38673   0.63780   1.000
    N204    N    0.05174   0.58035   0.23433   1.000
    O205    O    0.96308   0.58459   0.18229   1.000
    O206    O    0.99922   0.63202   0.14328   1.000
    O207    O    0.01631   0.47927   0.31195   1.000
    O208    O    0.07058   0.50204   0.35115   1.000
    O209    O    0.05097   0.68933   0.17574   1.000
    O210    O    0.09334   0.61173   0.13796   1.000
    N211    N    0.55138   0.57956   0.23382   1.000
    O212    O    0.49846   0.63208   0.14345   1.000
    O213    O    0.51651   0.47881   0.31191   1.000
    O214    O    0.57039   0.50161   0.35085   1.000
    O215    O    0.55066   0.68859   0.17535   1.000
    O216    O    0.59354   0.61116   0.13764   1.000
    O217    O    0.46267   0.58351   0.18138   1.000
    N218    N    0.94781   0.08036   0.26447   1.000
    O219    O    0.92923   0.00203   0.14798   1.000
    O220    O    0.94903   0.18930   0.32294   1.000
    O221    O    0.90631   0.11201   0.36079   1.000
    O222    O    0.03656   0.08445   0.31634   1.000
    O223    O    0.00053   0.13227   0.35495   1.000
    O224    O    0.98304   0.97936   0.18709   1.000
    N225    N    0.44894   0.07953   0.26553   1.000
    O226    O    0.48373   0.97878   0.18768   1.000
    O227    O    0.42983   0.00157   0.14873   1.000
    O228    O    0.44992   0.18842   0.32273   1.000
    O229    O    0.50162   0.13126   0.35686   1.000
    O230    O    0.40652   0.11113   0.36166   1.000
    O231    O    0.53776   0.08406   0.31761   1.000
loop_
    _geom_bond_atom_site_label_1
    _geom_bond_atom_site_label_2
    _geom_bond_distance
    _geom_bond_site_symmetry_2
    _ccdc_geom_bond_type
    Zr52   O64       0.49205      .   S
    Zr36   O64       0.49205      .   S
    Zr52   O65       0.99751  1_554   S
    Zr2    O65       0.99751      .   S
    Zr54   O66       0.51884      .   S
    Zr38   O66       0.51884      .   S
    Zr54   O67       0.99114      .   S
    Zr26   O67       0.99114      .   S
    Zr55   O68       0.51900      .   S
    Zr39   O68       0.51900      .   S
    Zr55   O69       0.99316      .   S
    Zr27   O69       0.99316      .   S
    Zr37   O70       0.49283      .   S
    Zr53   O70       0.49283      .   S
    Zr11   O71       0.99160      .   S
    Zr63   O71       0.99160      .   S
    Zr11   O72       0.99415      .   S
    Zr48   O72       0.99415  1_455   S
    Zr10   O73       0.98920      .   S
    Zr62   O73       0.98920      .   S
    Zr45   O74       0.49179      .   S
    Zr61   O74       0.49179      .   S
    Zr44   O75       0.49220      .   S
    Zr60   O75       0.49220      .   S
    Zr46   O76       0.52108      .   S
    Zr62   O76       0.52108      .   S
    Zr47   O77       0.51986      .   S
    Zr63   O77       0.51986      .   S
    Zr22   O78       0.99756      .   S
    Zr60   O78       0.99756      .   S
    Zr61   O79       0.99775      .   S
    Zr19   O79       0.99775      .   S
    Zr48   O80       0.49260      .   S
    Zr32   O80       0.49260      .   S
    Zr49   O81       0.99630      .   S
    Zr15   O81       0.99630      .   S
    Zr49   O82       0.49214      .   S
    Zr33   O82       0.49214      .   S
    Zr50   O83       0.52001      .   S
    Zr34   O83       0.52001      .   S
    Zr50   O84       0.99220      .   S
    Zr18   O84       0.99220      .   S
    Zr51   O85       0.52079      .   S
    Zr35   O85       0.52079      .   S
    Zr51   O86       0.98983      .   S
    Zr19   O86       0.98983      .   S
    Zr2    O87       0.98938      .   S
    Zr58   O87       0.98938      .   S
    Zr3    O88       0.98965      .   S
    Zr59   O88       0.98965      .   S
    Zr3    O89       0.99783      .   S
    Zr53   O89       0.99783  1_554   S
    Zr40   O90       0.49277      .   S
    Zr56   O90       0.49277      .   S
    Zr41   O91       0.49219      .   S
    Zr57   O91       0.49219      .   S
    Zr42   O92       0.52198      .   S
    Zr58   O92       0.52198      .   S
    Zr43   O93       0.52151      .   S
    Zr59   O93       0.52151      .   S
    Zr31   O94       0.99583      .   S
    Zr57   O94       0.99583      .   S
    Zr30   O95       0.99601      .   S
    Zr56   O95       0.99601      .   S
    Zr48   O96       1.07474      .   S
    Zr0    O96       1.07474      .   S
    Zr48   O97       0.99457      .   S
    Zr14   O97       0.99457      .   S
    Zr49   O98       1.07561      .   S
    Zr1    O98       1.07561      .   S
    Zr49   O99       0.99677      .   S
    Zr10   O99       0.99677      .   S
    Zr50   O100      1.05140      .   S
    Zr0    O100      1.05140      .   S
    Zr50   O101      0.99470      .   S
    Zr20   O101      0.99470      .   S
    Zr51   O102      1.05249      .   S
    Zr1    O102      1.05249      .   S
    Zr51   O103      0.99248      .   S
    Zr21   O103      0.99248      .   S
    Zr52   O104      0.99956      .   S
    Zr6    O104      0.99956      .   S
    Zr52   O105      1.07645  1_554   S
    Zr8    O105      1.07645      .   S
    Zr53   O106      0.99870      .   S
    Zr7    O106      0.99870      .   S
    Zr53   O107      1.07685  1_554   S
    Zr9    O107      1.07685      .   S
    Zr54   O108      1.05553  1_554   S
    Zr8    O108      1.05553      .   S
    Zr54   O109      0.99588  1_554   S
    Zr28   O109      0.99588      .   S
    Zr55   O110      1.04993  1_554   S
    Zr9    O110      1.04993      .   S
    Zr55   O111      0.99638  1_554   S
    Zr29   O111      0.99638      .   S
    Zr56   O112      1.07395  1_556   S
    Zr16   O112      1.07395      .   S
    Zr56   O113      0.99674  1_556   S
    Zr27   O113      0.99674      .   S
    Zr57   O114      1.07489  1_556   S
    Zr17   O114      1.07489      .   S
    Zr57   O115      0.99735  1_656   S
    Zr26   O115      0.99735      .   S
    Zr58   O116      0.99258  1_556   S
    Zr4    O116      0.99258      .   S
    Zr58   O117      1.04992  1_556   S
    Zr16   O117      1.04992      .   S
    Zr59   O118      0.99152  1_556   S
    Zr5    O118      0.99152      .   S
    Zr59   O119      1.05199  1_556   S
    Zr17   O119      1.05199      .   S
    Zr60   O120      0.99891      .   S
    Zr18   O120      0.99891      .   S
    Zr60   O121      1.07249      .   S
    Zr24   O121      1.07249      .   S
    Zr61   O122      0.99911      .   S
    Zr23   O122      0.99911      .   S
    Zr61   O123      1.07803      .   S
    Zr25   O123      1.07803      .   S
    Zr62   O124      0.99214      .   S
    Zr12   O124      0.99214      .   S
    Zr62   O125      1.05257      .   S
    Zr24   O125      1.05257      .   S
    Zr63   O126      0.99254      .   S
    Zr13   O126      0.99254      .   S
    Zr63   O127      1.05467      .   S
    Zr25   O127      1.05467      .   S
    N128   O129      2.26911      .   S
    Zr12   O129      3.26563      .   S
    N128   O130      2.26094      .   S
    Zr24   O130      3.28596      .   S
    N128   O131      2.14613      .   S
    Zr1    O131      3.14795      .   S
    N128   O132      2.31573      .   S
    Zr29   O132      3.23595  1_565   S
    N128   O133      2.46170      .   S
    Zr30   O133      3.43785  1_565   S
    N134   O135      2.26526      .   S
    Zr13   O135      3.25789      .   S
    N134   O136      2.26396      .   S
    Zr25   O136      3.29084      .   S
    N134   O137      2.14505  1_655   S
    Zr0    O137      3.14805      .   S
    N134   O138      2.31573  1_655   S
    Zr28   O138      3.24029  1_565   S
    N134   O139      2.46544      .   S
    Zr31   O139      3.44285  1_565   S
    N140   O141      2.14539      .   S
    Zr16   O141      3.14813  1_554   S
    N140   O142      2.26300      .   S
    Zr29   O142      3.25375      .   S
    N140   O143      2.26661      .   S
    Zr9    O143      3.29539      .   S
    N140   O144      2.32154      .   S
    Zr12   O144      3.24645      .   S
    N140   O145      2.46223      .   S
    Zr15   O145      3.43915      .   S
    N146   O147      2.14474  1_455   S
    Zr17   O147      3.14545  1_554   S
    N146   O148      2.26071      .   S
    Zr28   O148      3.25119      .   S
    N146   O149      2.26918      .   S
    Zr8    O149      3.29825      .   S
    N146   O150      2.31971  1_455   S
    Zr13   O150      3.24304      .   S
    N146   O151      2.46134      .   S
    Zr14   O151      3.43678      .   S
    N152   O153      2.26553      .   S
    Zr21   O153      3.25881      .   S
    N152   O154      2.26626      .   S
    Zr1    O154      3.29399      .   S
    N152   O155      2.32138      .   S
    Zr5    O155      3.24736      .   S
    N152   O156      2.45885      .   S
    Zr7    O156      3.43039      .   S
    N152   O157      2.14142      .   S
    Zr25   O157      3.13690      .   S
    N158   O159      2.26195      .   S
    Zr20   O159      3.25024      .   S
    N158   O160      2.25832      .   S
    Zr0    O160      3.28241      .   S
    N158   O161      2.32056      .   S
    Zr4    O161      3.24360      .   S
    N158   O162      2.45769      .   S
    Zr6    O162      3.43200      .   S
    N158   O163      2.14719      .   S
    Zr24   O163      3.15137      .   S
    N164   O165      2.13362      .   S
    Zr8    O165      3.14226      .   S
    N164   O166      2.35155  1_565   S
    Zr18   O166      3.32495      .   S
    N164   O167      2.46666      .   S
    Zr22   O167      3.42925  1_545   S
    N164   O168      2.17528      .   S
    Zr2    O168      3.12258      .   S
    N164   O169      1.96877      .   S
    Zr30   O169      2.58602      .   S
    N164   O170      2.11500      .   S
    Zr28   O170      3.08319      .   S
    N171   O172      2.13746      .   S
    Zr9    O172      3.15174      .   S
    N171   O173      2.34957  1_565   S
    Zr19   O173      3.32259      .   S
    N171   O174      2.47265      .   S
    Zr23   O174      3.43987  1_545   S
    N171   O175      2.17501      .   S
    Zr3    O175      3.12076      .   S
    N171   O176      1.96519      .   S
    Zr31   O176      2.57785      .   S
    N171   O177      2.11364      .   S
    Zr29   O177      3.08008      .   S
    N178   O179      2.46165      .   S
    Zr23   O179      3.43794  1_545   S
    N178   O180      2.26607      .   S
    Zr5    O180      3.25727      .   S
    N178   O181      2.26488      .   S
    Zr17   O181      3.29242      .   S
    N178   O182      2.14407      .   S
    Zr9    O182      3.14143  1_556   S
    N178   O183      2.32136      .   S
    Zr21   O183      3.24492  1_545   S
    N184   O185      2.45850      .   S
    Zr22   O185      3.43308  1_545   S
    N184   O186      2.26445      .   S
    Zr4    O186      3.25807      .   S
    N184   O187      2.26187      .   S
    Zr16   O187      3.28977      .   S
    N184   O188      2.13906      .   S
    Zr8    O188      3.13489  1_556   S
    N184   O189      2.31636      .   S
    Zr20   O189      3.23760  1_545   S
    N190   O191      2.11468      .   S
    Zr12   O191      3.08000      .   S
    N190   O192      2.14007      .   S
    Zr24   O192      3.15532      .   S
    N190   O193      2.35145      .   S
    Zr2    O193      3.32669      .   S
    N190   O194      2.47431      .   S
    Zr6    O194      3.44318  1_554   S
    N190   O195      2.17491      .   S
    Zr18   O195      3.11936      .   S
    N190   O196      1.96509      .   S
    Zr14   O196      2.57768      .   S
    N197   O198      2.11710      .   S
    Zr13   O198      3.08736      .   S
    N197   O199      2.13157      .   S
    Zr25   O199      3.14009      .   S
    N197   O200      2.35083      .   S
    Zr3    O200      3.32522      .   S
    N197   O201      2.47099      .   S
    Zr7    O201      3.43634  1_554   S
    N197   O202      2.17542      .   S
    Zr19   O202      3.12175      .   S
    N197   O203      1.96492      .   S
    Zr15   O203      2.57693      .   S
    N204   O205      2.11280  1_455   S
    Zr5    O205      3.07875      .   S
    N204   O206      2.13766  1_455   S
    Zr17   O206      3.15233      .   S
    N204   O207      2.35595      .   S
    Zr11   O207      3.32096  1_655   S
    N204   O208      2.47278      .   S
    Zr14   O208      3.43842      .   S
    N204   O209      2.17282      .   S
    Zr26   O209      3.11325      .   S
    N204   O210      1.96333      .   S
    Zr6    O210      2.57418      .   S
    N211   O212      2.14022      .   S
    Zr16   O212      3.15721      .   S
    N211   O213      2.35219      .   S
    Zr10   O213      3.32652      .   S
    N211   O214      2.47281      .   S
    Zr15   O214      3.44083      .   S
    N211   O215      2.17264      .   S
    Zr27   O215      3.11329      .   S
    N211   O216      1.96728      .   S
    Zr7    O216      2.58315      .   S
    N211   O217      2.11643      .   S
    Zr4    O217      3.08136      .   S
    N218   O219      2.46788      .   S
    Zr31   O219      3.43130  1_566   S
    N218   O220      2.17179      .   S
    Zr11   O220      3.11131      .   S
    N218   O221      1.96332      .   S
    Zr23   O221      2.57837      .   S
    N218   O222      2.11315  1_655   S
    Zr20   O222      3.07785      .   S
    N218   O223      2.13476  1_655   S
    Zr0    O223      3.14519      .   S
    N218   O224      2.35181  1_545   S
    Zr26   O224      3.32770  1_455   S
    N225   O226      2.35019  1_545   S
    Zr27   O226      3.32470      .   S
    N225   O227      2.47046      .   S
    Zr30   O227      3.43921  1_566   S
    N225   O228      2.16077      .   S
    Zr10   O228      3.13000      .   S
    N225   O229      2.14366      .   S
    Zr1    O229      3.15896      .   S
    N225   O230      1.96955      .   S
    Zr22   O230      2.58448      .   S
    N225   O231      2.11647      .   S
    Zr21   O231      3.08263      .   S
