# CIF file generated by openbabel 2.4.90, see http://openbabel.sf.net
data_I
_chemical_name_common ''
_cell_length_a 19.673
_cell_length_b 24.252
_cell_length_c 15.389
_cell_angle_alpha 96.079
_cell_angle_beta 98.001
_cell_angle_gamma 113.54
_space_group_name_H-M_alt 'P 1'
_space_group_name_Hall 'P 1'
loop_
    _symmetry_equiv_pos_as_xyz
    x,y,z
loop_
    _atom_site_label
    _atom_site_type_symbol
    _atom_site_fract_x
    _atom_site_fract_y
    _atom_site_fract_z
    _atom_site_occupancy
    H0      H    0.09118   0.32499   0.14082   1.000
    H1      H    0.09151   0.82501   0.14092   1.000
    H2      H    0.59119   0.32499   0.14082   1.000
    H3      H    0.59152   0.82501   0.14092   1.000
    H4      H    0.18356   0.20167   0.20458   1.000
    H5      H    0.18384   0.70166   0.20465   1.000
    H6      H    0.68357   0.20167   0.20458   1.000
    H7      H    0.68385   0.70166   0.20465   1.000
    H8      H    0.03852   0.34135   0.51507   1.000
    H9      H    0.03899   0.84142   0.51511   1.000
    H10     H    0.53852   0.34135   0.51507   1.000
    H11     H    0.53899   0.84142   0.51511   1.000
    H12     H    0.33070   0.23137   0.34352   1.000
    H13     H    0.33127   0.73087   0.34373   1.000
    H14     H    0.83071   0.23137   0.34352   1.000
    H15     H    0.83128   0.73087   0.34370   1.000
    H16     H    0.37622   0.34766   0.22199   1.000
    H17     H    0.37655   0.84771   0.22208   1.000
    H18     H    0.87623   0.34767   0.22190   1.000
    H19     H    0.87657   0.84771   0.22208   1.000
    H20     H    0.39921   0.19504   0.09536   1.000
    H21     H    0.39946   0.69507   0.09538   1.000
    H22     H    0.89922   0.19504   0.09536   1.000
    H23     H    0.89947   0.69507   0.09538   1.000
    C24     C    0.82513   0.88175   0.63048   1.000
    C25     C    0.38740   0.10499   0.64877   1.000
    C26     C    0.38752   0.60517   0.64871   1.000
    C27     C    0.88743   0.10499   0.64874   1.000
    H28     H    0.40853   0.17497   0.85904   1.000
    H29     H    0.40886   0.67499   0.85914   1.000
    H30     H    0.90855   0.17497   0.85904   1.000
    H31     H    0.90888   0.67499   0.85914   1.000
    H32     H    0.31620   0.29832   0.79531   1.000
    H33     H    0.31648   0.79831   0.79538   1.000
    H34     H    0.81621   0.29832   0.79531   1.000
    H35     H    0.81649   0.79831   0.79538   1.000
    H36     H    0.46107   0.15856   0.48485   1.000
    H37     H    0.46154   0.65863   0.48489   1.000
    H38     H    0.96107   0.15856   0.48485   1.000
    H39     H    0.96154   0.65863   0.48489   1.000
    C40     C    0.22473   0.41568   0.08605   1.000
    C41     C    0.22477   0.91568   0.08600   1.000
    C42     C    0.72474   0.41568   0.08605   1.000
    C43     C    0.72479   0.91568   0.08600   1.000
    H44     H    0.16879   0.26909   0.65620   1.000
    H45     H    0.16936   0.76860   0.65640   1.000
    H46     H    0.66880   0.26909   0.65624   1.000
    H47     H    0.66937   0.76860   0.65644   1.000
    H48     H    0.12349   0.15227   0.77787   1.000
    H49     H    0.12382   0.65232   0.77797   1.000
    H50     H    0.62350   0.15227   0.77787   1.000
    H51     H    0.62384   0.65232   0.77797   1.000
    H52     H    0.10058   0.30491   0.90457   1.000
    H53     H    0.10084   0.80494   0.90460   1.000
    H54     H    0.60060   0.30491   0.90457   1.000
    H55     H    0.60085   0.80494   0.90460   1.000
    C56     C    0.09387   0.37691   0.74147   1.000
    C57     C    0.09418   0.87682   0.74141   1.000
    C58     C    0.59388   0.37691   0.74147   1.000
    C59     C    0.59419   0.87682   0.74142   1.000
    C60     C    0.27526   0.08430   0.91393   1.000
    C61     C    0.27530   0.58430   0.91390   1.000
    C62     C    0.77528   0.08430   0.91393   1.000
    C63     C    0.77532   0.58430   0.91390   1.000
    C64     C    0.32484   0.38192   0.63074   1.000
    C65     C    0.32511   0.88175   0.63050   1.000
    C66     C    0.82486   0.38192   0.63072   1.000
    O67     O    0.22203   0.60238   0.89270   1.000
    O68     O    0.72194   0.10230   0.89268   1.000
    O69     O    0.72204   0.60237   0.89270   1.000
    O70     O    0.34029   0.12066   0.95623   1.000
    O71     O    0.34036   0.62062   0.95600   1.000
    O72     O    0.84030   0.12066   0.95623   1.000
    O73     O    0.84037   0.62062   0.95619   1.000
    O74     O    0.27909   0.32637   0.59642   1.000
    C75     C    0.88754   0.60516   0.64870   1.000
    C76     C    0.10161   0.28953   0.16986   1.000
    C77     C    0.10193   0.78954   0.16996   1.000
    C78     C    0.60162   0.28953   0.16986   1.000
    C79     C    0.60195   0.78954   0.16996   1.000
    C80     C    0.14965   0.22763   0.20236   1.000
    C81     C    0.14994   0.72762   0.20242   1.000
    C82     C    0.64967   0.22763   0.20236   1.000
    C83     C    0.64996   0.72762   0.20243   1.000
    C84     C    0.47834   0.31596   0.48895   1.000
    C85     C    0.47882   0.81586   0.48903   1.000
    C86     C    0.97835   0.31596   0.48895   1.000
    C87     C    0.97883   0.81586   0.48903   1.000
    C88     C    0.37297   0.26047   0.40114   1.000
    C89     C    0.37350   0.76008   0.40131   1.000
    C90     C    0.87298   0.26047   0.40114   1.000
    C91     C    0.87351   0.76008   0.40131   1.000
    C92     C    0.36777   0.30740   0.17570   1.000
    C93     C    0.36809   0.80746   0.17583   1.000
    C94     C    0.86778   0.30740   0.17570   1.000
    C95     C    0.86810   0.80745   0.17583   1.000
    C96     C    0.38050   0.23061   0.11161   1.000
    C97     C    0.38078   0.73065   0.11165   1.000
    C98     C    0.88052   0.23061   0.11161   1.000
    C99     C    0.88079   0.73065   0.11165   1.000
    C100    C    0.40586   0.12316   0.25854   1.000
    C101    C    0.40618   0.62306   0.25840   1.000
    C102    C    0.90587   0.12316   0.25854   1.000
    C103    C    0.90619   0.62306   0.25848   1.000
    C104    C    0.17494   0.11823   0.36945   1.000
    C105    C    0.17520   0.61806   0.36919   1.000
    C106    C    0.67495   0.11823   0.36945   1.000
    C107    C    0.67520   0.61806   0.36922   1.000
    C108    C    0.11253   0.39481   0.35123   1.000
    C109    C    0.11264   0.89499   0.35119   1.000
    C110    C    0.61253   0.39482   0.35126   1.000
    C111    C    0.61265   0.89499   0.35120   1.000
    C112    C    0.39811   0.21044   0.83000   1.000
    C113    C    0.39843   0.71045   0.83010   1.000
    C114    C    0.89812   0.21044   0.83000   1.000
    C115    C    0.89844   0.71045   0.83010   1.000
    C116    C    0.35010   0.27236   0.79753   1.000
    C117    C    0.35039   0.77235   0.79760   1.000
    C118    C    0.85011   0.27236   0.79753   1.000
    C119    C    0.85040   0.77235   0.79760   1.000
    C120    C    0.02123   0.18411   0.51093   1.000
    C121    C    0.02171   0.68401   0.51101   1.000
    C122    C    0.52124   0.18411   0.51093   1.000
    C123    C    0.52172   0.68401   0.51101   1.000
    C124    C    0.12655   0.23989   0.59865   1.000
    C125    C    0.12708   0.73950   0.59882   1.000
    C126    C    0.62656   0.23989   0.59865   1.000
    C127    C    0.62709   0.73950   0.59882   1.000
    C128    C    0.13196   0.19253   0.82413   1.000
    C129    C    0.13227   0.69258   0.82420   1.000
    C130    C    0.63197   0.19253   0.82413   1.000
    C131    C    0.63228   0.69258   0.82420   1.000
    C132    C    0.11926   0.26933   0.88831   1.000
    C133    C    0.11954   0.76938   0.88834   1.000
    C134    C    0.61927   0.26934   0.88830   1.000
    C135    C    0.61955   0.76938   0.88834   1.000
    N136    N    0.09653   0.22056   0.25101   1.000
    N137    N    0.09681   0.72055   0.25108   1.000
    N138    N    0.59654   0.22056   0.25101   1.000
    N139    N    0.59682   0.72055   0.25108   1.000
    N140    N    0.06548   0.26037   0.22962   1.000
    N141    N    0.06580   0.76038   0.22970   1.000
    N142    N    0.56549   0.26037   0.22962   1.000
    N143    N    0.56581   0.76038   0.22970   1.000
    N144    N    0.15484   0.27038   0.15051   1.000
    N145    N    0.15516   0.77038   0.15059   1.000
    N146    N    0.65485   0.27038   0.15051   1.000
    N147    N    0.65517   0.77038   0.15059   1.000
    N148    N    0.42502   0.30908   0.53720   1.000
    N149    N    0.42550   0.80882   0.53732   1.000
    N150    N    0.92504   0.30908   0.53720   1.000
    N151    N    0.92551   0.80882   0.53732   1.000
    N152    N    0.35659   0.27335   0.48009   1.000
    N153    N    0.35711   0.77290   0.48028   1.000
    N154    N    0.85660   0.27335   0.48009   1.000
    N155    N    0.85712   0.77290   0.48020   1.000
    N156    N    0.44812   0.28654   0.40355   1.000
    N157    N    0.44864   0.78636   0.40367   1.000
    N158    N    0.94813   0.28654   0.40355   1.000
    N159    N    0.94865   0.78636   0.40367   1.000
    N160    N    0.40961   0.27483   0.18525   1.000
    N161    N    0.40989   0.77485   0.18531   1.000
    N162    N    0.90962   0.27483   0.18525   1.000
    N163    N    0.90990   0.77485   0.18531   1.000
    N164    N    0.32339   0.23510   0.05950   1.000
    N165    N    0.32370   0.73518   0.05950   1.000
    N166    N    0.82340   0.23510   0.05950   1.000
    N167    N    0.82371   0.73518   0.05953   1.000
    N168    N    0.31484   0.28459   0.10109   1.000
    N169    N    0.31517   0.78468   0.10110   1.000
    N170    N    0.81485   0.28459   0.10109   1.000
    N171    N    0.81518   0.78468   0.10114   1.000
    N172    N    0.40323   0.27943   0.74888   1.000
    N173    N    0.40352   0.77942   0.74895   1.000
    N174    N    0.90324   0.27943   0.74888   1.000
    N175    N    0.90353   0.77942   0.74895   1.000
    N176    N    0.43424   0.23960   0.77025   1.000
    N177    N    0.43456   0.73961   0.77034   1.000
    N178    N    0.93425   0.23960   0.77025   1.000
    N179    N    0.93457   0.73961   0.77034   1.000
    N180    N    0.34489   0.22960   0.84937   1.000
    N181    N    0.34520   0.72960   0.84945   1.000
    N182    N    0.84490   0.22960   0.84937   1.000
    N183    N    0.84521   0.72960   0.84945   1.000
    N184    N    0.07455   0.19115   0.46264   1.000
    N185    N    0.07503   0.69089   0.46276   1.000
    N186    N    0.57456   0.19115   0.46264   1.000
    N187    N    0.57504   0.69089   0.46270   1.000
    N188    N    0.14295   0.22707   0.51969   1.000
    N189    N    0.14346   0.72662   0.51987   1.000
    N190    N    0.64296   0.22706   0.51969   1.000
    N191    N    0.64347   0.72662   0.51987   1.000
    N192    N    0.05141   0.21362   0.59629   1.000
    N193    N    0.05193   0.71344   0.59641   1.000
    N194    N    0.55142   0.21361   0.59629   1.000
    N195    N    0.55194   0.71344   0.59641   1.000
    N196    N    0.09015   0.22513   0.81464   1.000
    N197    N    0.09043   0.72515   0.81471   1.000
    N198    N    0.59016   0.22513   0.81464   1.000
    N199    N    0.59044   0.72515   0.81471   1.000
    N200    N    0.17634   0.26481   0.94042   1.000
    N201    N    0.17665   0.76489   0.94046   1.000
    N202    N    0.67636   0.26481   0.94042   1.000
    N203    N    0.67666   0.76489   0.94046   1.000
    N204    N    0.18487   0.21530   0.89881   1.000
    N205    N    0.18520   0.71539   0.89887   1.000
    N206    N    0.68488   0.21531   0.89881   1.000
    N207    N    0.68521   0.71539   0.89887   1.000
    O208    O    0.07910   0.32166   0.71460   1.000
    O209    O    0.07955   0.82159   0.71459   1.000
    O210    O    0.57911   0.32166   0.71461   1.000
    O211    O    0.57956   0.82159   0.71459   1.000
    O212    O    0.04669   0.40096   0.72266   1.000
    O213    O    0.04694   0.90080   0.72250   1.000
    O214    O    0.54670   0.40096   0.72266   1.000
    O215    O    0.54695   0.90080   0.72255   1.000
    O216    O    0.22192   0.10230   0.89268   1.000
    O217    O    0.27945   0.82619   0.59608   1.000
    O218    O    0.77909   0.32637   0.59643   1.000
    O219    O    0.77946   0.82619   0.59609   1.000
    O220    O    0.39187   0.39756   0.67400   1.000
    O221    O    0.39211   0.89743   0.67387   1.000
    O222    O    0.89187   0.39756   0.67401   1.000
    O223    O    0.89212   0.89743   0.67388   1.000
    O224    O    0.45053   0.11971   0.70396   1.000
    O225    O    0.45061   0.61979   0.70393   1.000
    O226    O    0.95054   0.11971   0.70397   1.000
    O227    O    0.95062   0.61979   0.70394   1.000
    O228    O    0.37361   0.14275   0.60745   1.000
    O229    O    0.37388   0.64297   0.60735   1.000
    O230    O    0.87361   0.14275   0.60746   1.000
    O231    O    0.87389   0.64297   0.60736   1.000
    O232    O    0.42050   0.17839   0.28537   1.000
    O233    O    0.42095   0.67832   0.28534   1.000
    O234    O    0.92052   0.17839   0.28537   1.000
    O235    O    0.92096   0.67832   0.28535   1.000
    O236    O    0.45310   0.09918   0.27739   1.000
    O237    O    0.45336   0.59902   0.27728   1.000
    O238    O    0.95311   0.09918   0.27739   1.000
    O239    O    0.95337   0.59902   0.27720   1.000
    O240    O    0.27801   0.39760   0.10725   1.000
    O241    O    0.27811   0.89768   0.10727   1.000
    O242    O    0.77802   0.39760   0.10726   1.000
    O243    O    0.77813   0.89768   0.10727   1.000
    O244    O    0.15968   0.37936   0.04370   1.000
    O245    O    0.15975   0.87932   0.04372   1.000
    O246    O    0.65969   0.37936   0.04376   1.000
    O247    O    0.65976   0.87932   0.04372   1.000
    O248    O    0.22060   0.17379   0.40386   1.000
    O249    O    0.22096   0.67361   0.40352   1.000
    O250    O    0.72061   0.17379   0.40386   1.000
    O251    O    0.72097   0.67361   0.40351   1.000
    O252    O    0.10793   0.10255   0.32608   1.000
    O253    O    0.10817   0.60242   0.32595   1.000
    O254    O    0.60794   0.10255   0.32600   1.000
    O255    O    0.60819   0.60242   0.32594   1.000
    O256    O    0.04943   0.38019   0.29603   1.000
    O257    O    0.04951   0.88027   0.29600   1.000
    O258    O    0.54945   0.38018   0.29602   1.000
    O259    O    0.54953   0.88026   0.29600   1.000
    O260    O    0.12617   0.35702   0.39262   1.000
    O261    O    0.12644   0.85723   0.39250   1.000
    O262    O    0.62619   0.35701   0.39260   1.000
    O263    O    0.62646   0.85723   0.39250   1.000
loop_
    _geom_bond_atom_site_label_1
    _geom_bond_atom_site_label_2
    _geom_bond_distance
    _geom_bond_site_symmetry_2
    _ccdc_geom_bond_type
    O244   C40       1.25858      .   S
    O247   C43       1.25821      .   S
    O245   C41       1.25821      .   S
    O246   C42       1.25834      .   S
    N164   N168      1.38101      .   S
    N164   C96       1.33522      .   S
    N165   N169      1.38097      .   S
    N165   C97       1.33551      .   S
    N166   N170      1.38100      .   S
    N166   C98       1.33524      .   S
    N167   N171      1.38105      .   S
    N167   C99       1.33527      .   S
    C41    O241      1.30368      .   S
    C43    O243      1.30366      .   S
    C40    O240      1.30357      .   S
    C42    O242      1.30358      .   S
    H22    C98       1.08412      .   S
    H20    C96       1.08413      .   S
    H21    C97       1.08413      .   S
    H23    C99       1.08413      .   S
    N168   C92       1.33459      .   S
    N170   C94       1.33458      .   S
    N169   C93       1.33572      .   S
    N171   C95       1.33530      .   S
    C96    N160      1.35415      .   S
    C98    N162      1.35415      .   S
    C99    N163      1.35409      .   S
    C97    N161      1.35409      .   S
    H0     C76       1.08552      .   S
    H2     C78       1.08552      .   S
    H1     C77       1.08555      .   S
    H3     C79       1.08558      .   S
    N144   C76       1.35914      .   S
    N144   C80       1.35463      .   S
    N146   C78       1.35914      .   S
    N146   C82       1.35463      .   S
    N145   C77       1.35916      .   S
    N145   C81       1.35461      .   S
    N147   C79       1.35914      .   S
    N147   C83       1.35473      .   S
    C78    N142      1.33010      .   S
    C76    N140      1.33008      .   S
    C77    N141      1.32997      .   S
    C79    N143      1.32997      .   S
    C94    N162      1.35415      .   S
    C94    H18       1.08489      .   S
    C92    N160      1.35413      .   S
    C92    H16       1.08562      .   S
    C95    N163      1.35410      .   S
    C95    H19       1.08509      .   S
    C93    N161      1.35412      .   S
    C93    H17       1.08508      .   S
    C82    H6        1.08444      .   S
    C82    N138      1.33574      .   S
    C80    H4        1.08442      .   S
    C80    N136      1.33572      .   S
    C81    H5        1.08443      .   S
    C81    N137      1.33585      .   S
    C83    H7        1.08441      .   S
    C83    N139      1.33579      .   S
    N140   N136      1.37689      .   S
    N142   N138      1.37690      .   S
    N141   N137      1.37700      .   S
    N143   N139      1.37702      .   S
    C101   O237      1.29586      .   S
    C101   O233      1.26084      .   S
    C103   O239      1.29539      .   S
    C103   O235      1.26062      .   S
    C100   O236      1.29556      .   S
    C100   O232      1.26065      .   S
    C102   O238      1.29556      .   S
    C102   O234      1.26064      .   S
    O259   C111      1.29579      .   S
    O257   C109      1.29582      .   S
    O258   C110      1.29577      .   S
    O256   C108      1.29581      .   S
    O255   C107      1.27604      .   S
    O253   C105      1.27602      .   S
    O254   C106      1.27658      .   S
    O252   C104      1.27619      .   S
    H14    C90       1.08136      .   S
    H12    C88       1.08137      .   S
    H15    C91       1.08162      .   S
    H13    C89       1.08133      .   S
    C109   O261      1.26100      .   S
    C111   O263      1.26103      .   S
    C108   O260      1.26108      .   S
    C110   O262      1.26107      .   S
    C105   O249      1.28557      .   S
    C107   O251      1.28555      .   S
    C104   O248      1.28543      .   S
    C106   O250      1.28547      .   S
    C90    N158      1.34912      .   S
    C90    N154      1.33665      .   S
    C88    N156      1.34913      .   S
    C88    N152      1.33665      .   S
    C91    N159      1.34911      .   S
    C91    N155      1.33561      .   S
    C89    N157      1.34911      .   S
    C89    N153      1.33673      .   S
    N156   C84       1.35456      .   S
    N158   C86       1.35457      .   S
    N157   C85       1.35445      .   S
    N159   C87       1.35445      .   S
    N184   C120      1.33518      .   S
    N184   N188      1.38305      .   S
    N186   C122      1.33518      .   S
    N186   N190      1.38305      .   S
    N187   C123      1.33570      .   S
    N187   N191      1.38366      .   S
    N185   C121      1.33509      .   S
    N185   N189      1.38324      .   S
    N154   N150      1.38325      .   S
    N152   N148      1.38324      .   S
    N155   N151      1.38350      .   S
    N153   N149      1.38298      .   S
    H36    C122      1.08414      .   S
    H38    C120      1.08396  1_655   S
    H39    C121      1.08396  1_655   S
    H37    C123      1.08415      .   S
    C86    H8        1.08396  1_655   S
    C86    N150      1.33509      .   S
    C84    H10       1.08414      .   S
    C84    N148      1.33507      .   S
    C85    H11       1.08414      .   S
    C85    N149      1.33518      .   S
    C87    H9        1.08395  1_655   S
    C87    N151      1.33520      .   S
    C120   N192      1.35445      .   S
    C122   N194      1.35444      .   S
    C121   N193      1.35455      .   S
    C123   N195      1.35455      .   S
    N188   C124      1.33661      .   S
    N190   C126      1.33661      .   S
    N189   C125      1.33665      .   S
    N191   C127      1.33665      .   S
    O217   C65       1.28542      .   S
    O219   C24       1.28544      .   S
    N192   C124      1.34912      .   S
    N194   C126      1.34912      .   S
    N195   C127      1.34913      .   S
    N193   C125      1.34913      .   S
    O74    C64       1.28554      .   S
    O218   C66       1.28552      .   S
    C126   H46       1.08143      .   S
    C124   H44       1.08102      .   S
    C127   H47       1.08137      .   S
    C125   H45       1.08096      .   S
    O229   C26       1.26100      .   S
    O231   C75       1.26108      .   S
    O228   C25       1.26108      .   S
    O230   C27       1.26104      .   S
    C24    O223      1.27619      .   S
    C65    O221      1.27619      .   S
    C66    O222      1.27607      .   S
    C64    O220      1.27605      .   S
    C75    O227      1.29576      .   S
    C26    O225      1.29579      .   S
    C27    O226      1.29585      .   S
    C25    O224      1.29580      .   S
    O211   C59       1.26064      .   S
    O209   C57       1.26064      .   S
    O208   C56       1.26063      .   S
    O210   C58       1.26060      .   S
    O213   C57       1.29569      .   S
    O215   C59       1.29557      .   S
    O214   C58       1.29561      .   S
    O212   C56       1.29564      .   S
    N174   N178      1.37695      .   S
    N174   C118      1.33576      .   S
    N172   N176      1.37696      .   S
    N172   C116      1.33578      .   S
    N175   N179      1.37692      .   S
    N175   C119      1.33571      .   S
    N173   N177      1.37691      .   S
    N173   C117      1.33576      .   S
    N176   C112      1.33008      .   S
    N178   C114      1.33006      .   S
    N179   C115      1.33009      .   S
    N177   C113      1.33014      .   S
    H48    C128      1.08516      .   S
    H50    C130      1.08515      .   S
    H49    C129      1.08511      .   S
    H51    C131      1.08512      .   S
    H34    C118      1.08441      .   S
    H32    C116      1.08443      .   S
    H35    C119      1.08443      .   S
    H33    C117      1.08442      .   S
    C118   N182      1.35470      .   S
    C116   N180      1.35470      .   S
    C119   N183      1.35463      .   S
    C117   N181      1.35465      .   S
    N196   C128      1.35411      .   S
    N196   C132      1.35420      .   S
    N198   C130      1.35415      .   S
    N198   C134      1.35409      .   S
    N197   C129      1.35405      .   S
    N197   C133      1.35406      .   S
    N199   C131      1.35405      .   S
    N199   C135      1.35406      .   S
    C128   N204      1.33518      .   S
    C130   N206      1.33518      .   S
    C129   N205      1.33523      .   S
    C131   N207      1.33524      .   S
    C112   N180      1.35918      .   S
    C112   H28       1.08554      .   S
    C114   N182      1.35916      .   S
    C114   H30       1.08556      .   S
    C113   N181      1.35914      .   S
    C113   H29       1.08552      .   S
    C115   N183      1.35914      .   S
    C115   H31       1.08553      .   S
    C134   H54       1.08413      .   S
    C134   N202      1.33528      .   S
    C132   H52       1.08411      .   S
    C132   N200      1.33519      .   S
    C135   H55       1.08413      .   S
    C135   N203      1.33530      .   S
    C133   H53       1.08415      .   S
    C133   N201      1.33530      .   S
    O68    C62       1.30361      .   S
    O216   C60       1.30361      .   S
    O69    C63       1.30355      .   S
    O67    C61       1.30353      .   S
    N206   N202      1.38103      .   S
    N204   N200      1.38105      .   S
    N207   N203      1.38100      .   S
    N205   N201      1.38100      .   S
    C63    O73       1.25834      .   S
    C61    O71       1.25748      .   S
    C62    O72       1.25833      .   S
    C60    O70       1.25830      .   S
