# CIF file generated by openbabel 2.4.90, see http://openbabel.sf.net
data_I
_chemical_name_common ''
_cell_length_a 19.673
_cell_length_b 24.252
_cell_length_c 15.389
_cell_angle_alpha 96.079
_cell_angle_beta 98.001
_cell_angle_gamma 113.54
_space_group_name_H-M_alt 'P 1'
_space_group_name_Hall 'P 1'
loop_
    _symmetry_equiv_pos_as_xyz
    x,y,z
loop_
    _atom_site_label
    _atom_site_type_symbol
    _atom_site_fract_x
    _atom_site_fract_y
    _atom_site_fract_z
    _atom_site_occupancy
    Zr0     Zr   0.49572   0.28795   0.29251   1.000
    Zr1     Zr   0.49606   0.78800   0.29252   1.000
    Zr2     Zr   0.99573   0.28795   0.29251   1.000
    Zr3     Zr   0.99606   0.78800   0.29252   1.000
    Zr4     Zr   0.44299   0.34186   0.66994   1.000
    Zr5     Zr   0.44323   0.84175   0.66992   1.000
    Zr6     Zr   0.94300   0.34186   0.66994   1.000
    Zr7     Zr   0.94324   0.84175   0.66992   1.000
    Zr8     Zr   0.22693   0.30838   0.06664   1.000
    Zr9     Zr   0.22722   0.80845   0.06669   1.000
    Zr10    Zr   0.72694   0.30838   0.06664   1.000
    Zr11    Zr   0.72723   0.80845   0.06669   1.000
    Zr12    Zr   0.00399   0.21198   0.70744   1.000
    Zr13    Zr   0.00433   0.71203   0.70740   1.000
    Zr14    Zr   0.50400   0.21198   0.70744   1.000
    Zr15    Zr   0.50433   0.71203   0.70745   1.000
    Zr16    Zr   0.05681   0.15823   0.33004   1.000
    Zr17    Zr   0.05705   0.65812   0.33001   1.000
    Zr18    Zr   0.55682   0.15823   0.33004   1.000
    Zr19    Zr   0.55706   0.65812   0.33001   1.000
    Zr20    Zr   0.27282   0.19153   0.93327   1.000
    Zr21    Zr   0.27311   0.69160   0.93332   1.000
    Zr22    Zr   0.77284   0.19153   0.93327   1.000
    Zr23    Zr   0.77312   0.69160   0.93332   1.000
    Zr24    Zr   0.24976   0.25022   0.49995   1.000
    Zr25    Zr   0.25030   0.74975   0.50001   1.000
    Zr26    Zr   0.74977   0.25021   0.49995   1.000
    Zr27    Zr   0.75031   0.74975   0.50001   1.000
    Zr28    Zr   0.09118   0.32499   0.14082   1.000
    Zr29    Zr   0.09151   0.82501   0.14092   1.000
    Zr30    Zr   0.59119   0.32499   0.14082   1.000
    Zr31    Zr   0.59152   0.82501   0.14092   1.000
    Zr32    Zr   0.18356   0.20167   0.20458   1.000
    Zr33    Zr   0.18384   0.70166   0.20465   1.000
    Zr34    Zr   0.68357   0.20167   0.20458   1.000
    Zr35    Zr   0.68385   0.70166   0.20465   1.000
    Zr36    Zr   0.03852   0.34135   0.51507   1.000
    Zr37    Zr   0.03899   0.84142   0.51511   1.000
    Zr38    Zr   0.53852   0.34135   0.51507   1.000
    Zr39    Zr   0.53899   0.84142   0.51511   1.000
    Zr40    Zr   0.33070   0.23137   0.34352   1.000
    Zr41    Zr   0.33127   0.73087   0.34373   1.000
    Zr42    Zr   0.83071   0.23137   0.34352   1.000
    Zr43    Zr   0.83128   0.73087   0.34370   1.000
    Zr44    Zr   0.37622   0.34766   0.22199   1.000
    Zr45    Zr   0.37655   0.84771   0.22208   1.000
    Zr46    Zr   0.87623   0.34767   0.22190   1.000
    Zr47    Zr   0.87657   0.84771   0.22208   1.000
    Zr48    Zr   0.39921   0.19504   0.09536   1.000
    Zr49    Zr   0.39946   0.69507   0.09538   1.000
    Zr50    Zr   0.89922   0.19504   0.09536   1.000
    Zr51    Zr   0.89947   0.69507   0.09538   1.000
    Zr52    Zr   0.40853   0.17497   0.85904   1.000
    Zr53    Zr   0.40886   0.67499   0.85914   1.000
    Zr54    Zr   0.90855   0.17497   0.85904   1.000
    Zr55    Zr   0.90888   0.67499   0.85914   1.000
    Zr56    Zr   0.31620   0.29832   0.79531   1.000
    Zr57    Zr   0.31648   0.79831   0.79538   1.000
    Zr58    Zr   0.81621   0.29832   0.79531   1.000
    Zr59    Zr   0.81649   0.79831   0.79538   1.000
    Zr60    Zr   0.46107   0.15856   0.48485   1.000
    Zr61    Zr   0.46154   0.65863   0.48489   1.000
    Zr62    Zr   0.96107   0.15856   0.48485   1.000
    Zr63    Zr   0.96154   0.65863   0.48489   1.000
    Zr64    Zr   0.16879   0.26909   0.65620   1.000
    Zr65    Zr   0.16936   0.76860   0.65640   1.000
    Zr66    Zr   0.66880   0.26909   0.65624   1.000
    Zr67    Zr   0.66937   0.76860   0.65644   1.000
    Zr68    Zr   0.12349   0.15227   0.77787   1.000
    Zr69    Zr   0.12382   0.65232   0.77797   1.000
    Zr70    Zr   0.62350   0.15227   0.77787   1.000
    Zr71    Zr   0.62384   0.65232   0.77797   1.000
    Zr72    Zr   0.10058   0.30491   0.90457   1.000
    Zr73    Zr   0.10084   0.80494   0.90460   1.000
    Zr74    Zr   0.60060   0.30491   0.90457   1.000
    Zr75    Zr   0.60085   0.80494   0.90460   1.000
    Zr76    Zr   0.09387   0.37691   0.74147   1.000
    Zr77    Zr   0.09418   0.87682   0.74141   1.000
    Zr78    Zr   0.59388   0.37691   0.74147   1.000
    Zr79    Zr   0.59419   0.87682   0.74142   1.000
    Zr80    Zr   0.27526   0.08430   0.91393   1.000
    Zr81    Zr   0.27530   0.58430   0.91390   1.000
    Zr82    Zr   0.77528   0.08430   0.91393   1.000
    Zr83    Zr   0.77532   0.58430   0.91390   1.000
    Zr84    Zr   0.32484   0.38192   0.63074   1.000
    Zr85    Zr   0.32511   0.88175   0.63050   1.000
    Zr86    Zr   0.82486   0.38192   0.63072   1.000
    Zr87    Zr   0.82513   0.88175   0.63048   1.000
    Zr88    Zr   0.38740   0.10499   0.64877   1.000
    Zr89    Zr   0.38752   0.60517   0.64871   1.000
    Zr90    Zr   0.88743   0.10499   0.64874   1.000
    Zr91    Zr   0.88754   0.60516   0.64870   1.000
    Zr92    Zr   0.10161   0.28953   0.16986   1.000
    Zr93    Zr   0.10193   0.78954   0.16996   1.000
    Zr94    Zr   0.60162   0.28953   0.16986   1.000
    Zr95    Zr   0.60195   0.78954   0.16996   1.000
    Zr96    Zr   0.14965   0.22763   0.20236   1.000
    Zr97    Zr   0.14994   0.72762   0.20242   1.000
    Zr98    Zr   0.64967   0.22763   0.20236   1.000
    Zr99    Zr   0.64996   0.72762   0.20243   1.000
    Zr100   Zr   0.47834   0.31596   0.48895   1.000
    Zr101   Zr   0.47882   0.81586   0.48903   1.000
    Zr102   Zr   0.97835   0.31596   0.48895   1.000
    Zr103   Zr   0.97883   0.81586   0.48903   1.000
    Zr104   Zr   0.37297   0.26047   0.40114   1.000
    Zr105   Zr   0.37350   0.76008   0.40131   1.000
    Zr106   Zr   0.87298   0.26047   0.40114   1.000
    Zr107   Zr   0.87351   0.76008   0.40131   1.000
    Zr108   Zr   0.36777   0.30740   0.17570   1.000
    Zr109   Zr   0.36809   0.80746   0.17583   1.000
    Zr110   Zr   0.86778   0.30740   0.17570   1.000
    Zr111   Zr   0.86810   0.80745   0.17583   1.000
    Zr112   Zr   0.38050   0.23061   0.11161   1.000
    Zr113   Zr   0.38078   0.73065   0.11165   1.000
    Zr114   Zr   0.88052   0.23061   0.11161   1.000
    Zr115   Zr   0.88079   0.73065   0.11165   1.000
    Zr116   Zr   0.40586   0.12316   0.25854   1.000
    Zr117   Zr   0.40618   0.62306   0.25840   1.000
    Zr118   Zr   0.90587   0.12316   0.25854   1.000
    Zr119   Zr   0.90619   0.62306   0.25848   1.000
    Zr120   Zr   0.22473   0.41568   0.08605   1.000
    Zr121   Zr   0.22477   0.91568   0.08600   1.000
    Zr122   Zr   0.72474   0.41568   0.08605   1.000
    Zr123   Zr   0.72479   0.91568   0.08600   1.000
    Zr124   Zr   0.17494   0.11823   0.36945   1.000
    Zr125   Zr   0.17520   0.61806   0.36919   1.000
    Zr126   Zr   0.67495   0.11823   0.36945   1.000
    Zr127   Zr   0.67520   0.61806   0.36922   1.000
    Zr128   Zr   0.11253   0.39481   0.35123   1.000
    Zr129   Zr   0.11264   0.89499   0.35119   1.000
    Zr130   Zr   0.61253   0.39482   0.35126   1.000
    Zr131   Zr   0.61265   0.89499   0.35120   1.000
    Zr132   Zr   0.39811   0.21044   0.83000   1.000
    Zr133   Zr   0.39843   0.71045   0.83010   1.000
    Zr134   Zr   0.89812   0.21044   0.83000   1.000
    Zr135   Zr   0.89844   0.71045   0.83010   1.000
    Zr136   Zr   0.35010   0.27236   0.79753   1.000
    Zr137   Zr   0.35039   0.77235   0.79760   1.000
    Zr138   Zr   0.85011   0.27236   0.79753   1.000
    Zr139   Zr   0.85040   0.77235   0.79760   1.000
    Zr140   Zr   0.02123   0.18411   0.51093   1.000
    Zr141   Zr   0.02171   0.68401   0.51101   1.000
    Zr142   Zr   0.52124   0.18411   0.51093   1.000
    Zr143   Zr   0.52172   0.68401   0.51101   1.000
    Zr144   Zr   0.12655   0.23989   0.59865   1.000
    Zr145   Zr   0.12708   0.73950   0.59882   1.000
    Zr146   Zr   0.62656   0.23989   0.59865   1.000
    Zr147   Zr   0.62709   0.73950   0.59882   1.000
    Zr148   Zr   0.13196   0.19253   0.82413   1.000
    Zr149   Zr   0.13227   0.69258   0.82420   1.000
    Zr150   Zr   0.63197   0.19253   0.82413   1.000
    Zr151   Zr   0.63228   0.69258   0.82420   1.000
    Zr152   Zr   0.11926   0.26933   0.88831   1.000
    Zr153   Zr   0.11954   0.76938   0.88834   1.000
    Zr154   Zr   0.61927   0.26934   0.88830   1.000
    Zr155   Zr   0.61955   0.76938   0.88834   1.000
    Zr156   Zr   0.09653   0.22056   0.25101   1.000
    Zr157   Zr   0.09681   0.72055   0.25108   1.000
    Zr158   Zr   0.59654   0.22056   0.25101   1.000
    Zr159   Zr   0.59682   0.72055   0.25108   1.000
    Zr160   Zr   0.06548   0.26037   0.22962   1.000
    Zr161   Zr   0.06580   0.76038   0.22970   1.000
    Zr162   Zr   0.56549   0.26037   0.22962   1.000
    Zr163   Zr   0.56581   0.76038   0.22970   1.000
    Zr164   Zr   0.15484   0.27038   0.15051   1.000
    Zr165   Zr   0.15516   0.77038   0.15059   1.000
    Zr166   Zr   0.65485   0.27038   0.15051   1.000
    Zr167   Zr   0.65517   0.77038   0.15059   1.000
    Zr168   Zr   0.42502   0.30908   0.53720   1.000
    Zr169   Zr   0.42550   0.80882   0.53732   1.000
    Zr170   Zr   0.92504   0.30908   0.53720   1.000
    Zr171   Zr   0.92551   0.80882   0.53732   1.000
    Zr172   Zr   0.35659   0.27335   0.48009   1.000
    Zr173   Zr   0.35711   0.77290   0.48028   1.000
    Zr174   Zr   0.85660   0.27335   0.48009   1.000
    Zr175   Zr   0.85712   0.77290   0.48020   1.000
    Zr176   Zr   0.44812   0.28654   0.40355   1.000
    Zr177   Zr   0.44864   0.78636   0.40367   1.000
    Zr178   Zr   0.94813   0.28654   0.40355   1.000
    Zr179   Zr   0.94865   0.78636   0.40367   1.000
    Zr180   Zr   0.40961   0.27483   0.18525   1.000
    Zr181   Zr   0.40989   0.77485   0.18531   1.000
    Zr182   Zr   0.90962   0.27483   0.18525   1.000
    Zr183   Zr   0.90990   0.77485   0.18531   1.000
    Zr184   Zr   0.32339   0.23510   0.05950   1.000
    Zr185   Zr   0.32370   0.73518   0.05950   1.000
    Zr186   Zr   0.82340   0.23510   0.05950   1.000
    Zr187   Zr   0.82371   0.73518   0.05953   1.000
    Zr188   Zr   0.31484   0.28459   0.10109   1.000
    Zr189   Zr   0.31517   0.78468   0.10110   1.000
    Zr190   Zr   0.81485   0.28459   0.10109   1.000
    Zr191   Zr   0.81518   0.78468   0.10114   1.000
    Zr192   Zr   0.40323   0.27943   0.74888   1.000
    Zr193   Zr   0.40352   0.77942   0.74895   1.000
    Zr194   Zr   0.90324   0.27943   0.74888   1.000
    Zr195   Zr   0.90353   0.77942   0.74895   1.000
    Zr196   Zr   0.43424   0.23960   0.77025   1.000
    Zr197   Zr   0.43456   0.73961   0.77034   1.000
    Zr198   Zr   0.93425   0.23960   0.77025   1.000
    Zr199   Zr   0.93457   0.73961   0.77034   1.000
    Zr200   Zr   0.34489   0.22960   0.84937   1.000
    Zr201   Zr   0.34520   0.72960   0.84945   1.000
    Zr202   Zr   0.84490   0.22960   0.84937   1.000
    Zr203   Zr   0.84521   0.72960   0.84945   1.000
    Zr204   Zr   0.07455   0.19115   0.46264   1.000
    Zr205   Zr   0.07503   0.69089   0.46276   1.000
    Zr206   Zr   0.57456   0.19115   0.46264   1.000
    Zr207   Zr   0.57504   0.69089   0.46270   1.000
    Zr208   Zr   0.14295   0.22707   0.51969   1.000
    Zr209   Zr   0.14346   0.72662   0.51987   1.000
    Zr210   Zr   0.64296   0.22706   0.51969   1.000
    Zr211   Zr   0.64347   0.72662   0.51987   1.000
    Zr212   Zr   0.05141   0.21362   0.59629   1.000
    Zr213   Zr   0.05193   0.71344   0.59641   1.000
    Zr214   Zr   0.55142   0.21361   0.59629   1.000
    Zr215   Zr   0.55194   0.71344   0.59641   1.000
    Zr216   Zr   0.09015   0.22513   0.81464   1.000
    Zr217   Zr   0.09043   0.72515   0.81471   1.000
    Zr218   Zr   0.59016   0.22513   0.81464   1.000
    Zr219   Zr   0.59044   0.72515   0.81471   1.000
    Zr220   Zr   0.17634   0.26481   0.94042   1.000
    Zr221   Zr   0.17665   0.76489   0.94046   1.000
    Zr222   Zr   0.67636   0.26481   0.94042   1.000
    Zr223   Zr   0.67666   0.76489   0.94046   1.000
    Zr224   Zr   0.18487   0.21530   0.89881   1.000
    Zr225   Zr   0.18520   0.71539   0.89887   1.000
    Zr226   Zr   0.68488   0.21531   0.89881   1.000
    Zr227   Zr   0.68521   0.71539   0.89887   1.000
    Zr228   Zr   0.07910   0.32166   0.71460   1.000
    Zr229   Zr   0.07955   0.82159   0.71459   1.000
    Zr230   Zr   0.57911   0.32166   0.71461   1.000
    Zr231   Zr   0.57956   0.82159   0.71459   1.000
    Zr232   Zr   0.04669   0.40096   0.72266   1.000
    Zr233   Zr   0.04694   0.90080   0.72250   1.000
    Zr234   Zr   0.54670   0.40096   0.72266   1.000
    Zr235   Zr   0.54695   0.90080   0.72255   1.000
    Zr236   Zr   0.22192   0.10230   0.89268   1.000
    Zr237   Zr   0.22203   0.60238   0.89270   1.000
    Zr238   Zr   0.72194   0.10230   0.89268   1.000
    Zr239   Zr   0.72204   0.60237   0.89270   1.000
    Zr240   Zr   0.34029   0.12066   0.95623   1.000
    Zr241   Zr   0.34036   0.62062   0.95600   1.000
    Zr242   Zr   0.84030   0.12066   0.95623   1.000
    Zr243   Zr   0.84037   0.62062   0.95619   1.000
    Zr244   Zr   0.27909   0.32637   0.59642   1.000
    Zr245   Zr   0.27945   0.82619   0.59608   1.000
    Zr246   Zr   0.77909   0.32637   0.59643   1.000
    Zr247   Zr   0.77946   0.82619   0.59609   1.000
    Zr248   Zr   0.39187   0.39756   0.67400   1.000
    Zr249   Zr   0.39211   0.89743   0.67387   1.000
    Zr250   Zr   0.89187   0.39756   0.67401   1.000
    Zr251   Zr   0.89212   0.89743   0.67388   1.000
    Zr252   Zr   0.45053   0.11971   0.70396   1.000
    Zr253   Zr   0.45061   0.61979   0.70393   1.000
    Zr254   Zr   0.95054   0.11971   0.70397   1.000
    Zr255   Zr   0.95062   0.61979   0.70394   1.000
    Zr256   Zr   0.37361   0.14275   0.60745   1.000
    Zr257   Zr   0.37388   0.64297   0.60735   1.000
    Zr258   Zr   0.87361   0.14275   0.60746   1.000
    Zr259   Zr   0.87389   0.64297   0.60736   1.000
    Zr260   Zr   0.42050   0.17839   0.28537   1.000
    Zr261   Zr   0.42095   0.67832   0.28534   1.000
    Zr262   Zr   0.92052   0.17839   0.28537   1.000
    Zr263   Zr   0.92096   0.67832   0.28535   1.000
    Zr264   Zr   0.45310   0.09918   0.27739   1.000
    Zr265   Zr   0.45336   0.59902   0.27728   1.000
    Zr266   Zr   0.95311   0.09918   0.27739   1.000
    Zr267   Zr   0.95337   0.59902   0.27720   1.000
    Zr268   Zr   0.27801   0.39760   0.10725   1.000
    Zr269   Zr   0.27811   0.89768   0.10727   1.000
    Zr270   Zr   0.77802   0.39760   0.10726   1.000
    Zr271   Zr   0.77813   0.89768   0.10727   1.000
    Zr272   Zr   0.15968   0.37936   0.04370   1.000
    Zr273   Zr   0.15975   0.87932   0.04372   1.000
    Zr274   Zr   0.65969   0.37936   0.04376   1.000
    Zr275   Zr   0.65976   0.87932   0.04372   1.000
    Zr276   Zr   0.22060   0.17379   0.40386   1.000
    Zr277   Zr   0.22096   0.67361   0.40352   1.000
    Zr278   Zr   0.72061   0.17379   0.40386   1.000
    Zr279   Zr   0.72097   0.67361   0.40351   1.000
    Zr280   Zr   0.10793   0.10255   0.32608   1.000
    Zr281   Zr   0.10817   0.60242   0.32595   1.000
    Zr282   Zr   0.60794   0.10255   0.32600   1.000
    Zr283   Zr   0.60819   0.60242   0.32594   1.000
    Zr284   Zr   0.04943   0.38019   0.29603   1.000
    Zr285   Zr   0.04951   0.88027   0.29600   1.000
    Zr286   Zr   0.54945   0.38018   0.29602   1.000
    Zr287   Zr   0.54953   0.88026   0.29600   1.000
    Zr288   Zr   0.12617   0.35702   0.39262   1.000
    Zr289   Zr   0.12644   0.85723   0.39250   1.000
    Zr290   Zr   0.62619   0.35701   0.39260   1.000
    Zr291   Zr   0.62646   0.85723   0.39250   1.000
    O292    O    0.19220   0.39752   0.06488   1.000
    O293    O    0.69228   0.89750   0.06486   1.000
    O294    O    0.19226   0.89750   0.06486   1.000
    O295    O    0.69222   0.39752   0.06491   1.000
    O296    O    0.31911   0.25984   0.08030   1.000
    O297    O    0.35195   0.23285   0.08556   1.000
    O298    O    0.29811   0.21331   0.99639   1.000
    O299    O    0.31943   0.75993   0.08030   1.000
    O300    O    0.35224   0.73291   0.08558   1.000
    O301    O    0.29840   0.71339   0.99641   1.000
    O302    O    0.81913   0.25984   0.08030   1.000
    O303    O    0.85196   0.23285   0.08556   1.000
    O304    O    0.79812   0.21331   0.99639   1.000
    O305    O    0.81945   0.75993   0.08034   1.000
    O306    O    0.85225   0.73291   0.08559   1.000
    O307    O    0.79841   0.71339   0.99643   1.000
    O308    O    0.77090   0.29648   0.08387   1.000
    O309    O    0.75248   0.35299   0.08695   1.000
    O310    O    0.69090   0.28938   0.10858   1.000
    O311    O    0.70165   0.28659   0.00353   1.000
    O312    O    0.27088   0.29648   0.08387   1.000
    O313    O    0.25247   0.35299   0.08695   1.000
    O314    O    0.19089   0.28938   0.10858   1.000
    O315    O    0.20164   0.28659   0.00353   1.000
    O316    O    0.77121   0.79656   0.08392   1.000
    O317    O    0.75268   0.85306   0.08698   1.000
    O318    O    0.69120   0.78941   0.10864   1.000
    O319    O    0.70195   0.78667   0.00358   1.000
    O320    O    0.27120   0.79656   0.08390   1.000
    O321    O    0.25266   0.85306   0.08698   1.000
    O322    O    0.19119   0.78941   0.10864   1.000
    O323    O    0.20193   0.78667   0.00358   1.000
    O324    O    0.25144   0.90668   0.09664   1.000
    O325    O    0.75146   0.90668   0.09664   1.000
    O326    O    0.25137   0.40664   0.09665   1.000
    O327    O    0.75138   0.40664   0.09666   1.000
    O328    O    0.88987   0.21282   0.10349   1.000
    O329    O    0.38985   0.21282   0.10349   1.000
    O330    O    0.39012   0.71286   0.10352   1.000
    O331    O    0.89013   0.71286   0.10352   1.000
    O332    O    0.34130   0.29600   0.13840   1.000
    O333    O    0.84132   0.29600   0.13840   1.000
    O334    O    0.34163   0.79607   0.13847   1.000
    O335    O    0.84164   0.79607   0.13849   1.000
    O336    O    0.39506   0.25272   0.14843   1.000
    O337    O    0.89507   0.25272   0.14843   1.000
    O338    O    0.89535   0.75275   0.14848   1.000
    O339    O    0.39534   0.75275   0.14848   1.000
    O340    O    0.09639   0.30726   0.15534   1.000
    O341    O    0.59640   0.30726   0.15534   1.000
    O342    O    0.09672   0.80728   0.15544   1.000
    O343    O    0.59673   0.80728   0.15544   1.000
    O344    O    0.12823   0.27995   0.16019   1.000
    O345    O    0.15225   0.24900   0.17644   1.000
    O346    O    0.62824   0.27995   0.16019   1.000
    O347    O    0.65226   0.24900   0.17644   1.000
    O348    O    0.12854   0.77996   0.16028   1.000
    O349    O    0.15255   0.74900   0.17651   1.000
    O350    O    0.62856   0.77996   0.16028   1.000
    O351    O    0.65256   0.74900   0.17651   1.000
    O352    O    0.58356   0.27495   0.19974   1.000
    O353    O    0.08355   0.27495   0.19974   1.000
    O354    O    0.08387   0.77496   0.19983   1.000
    O355    O    0.58388   0.77496   0.19983   1.000
    O356    O    0.88870   0.29112   0.18048   1.000
    O357    O    0.87200   0.32753   0.19880   1.000
    O358    O    0.38869   0.29112   0.18048   1.000
    O359    O    0.37199   0.32753   0.19885   1.000
    O360    O    0.88900   0.79115   0.18057   1.000
    O361    O    0.87233   0.82758   0.19896   1.000
    O362    O    0.38899   0.79115   0.18057   1.000
    O363    O    0.37232   0.82758   0.19896   1.000
    O364    O    0.45267   0.28139   0.23888   1.000
    O365    O    0.95268   0.28139   0.23888   1.000
    O366    O    0.95298   0.78142   0.23892   1.000
    O367    O    0.45297   0.78143   0.23892   1.000
    O368    O    0.66662   0.21465   0.20347   1.000
    O369    O    0.62310   0.22409   0.22669   1.000
    O370    O    0.16661   0.21465   0.20347   1.000
    O371    O    0.12309   0.22409   0.22669   1.000
    O372    O    0.16689   0.71464   0.20354   1.000
    O373    O    0.12338   0.72408   0.22675   1.000
    O374    O    0.66690   0.71464   0.20354   1.000
    O375    O    0.62339   0.72408   0.22676   1.000
    O376    O    0.08101   0.24046   0.24032   1.000
    O377    O    0.03061   0.27416   0.26107   1.000
    O378    O    0.58102   0.24046   0.24032   1.000
    O379    O    0.53061   0.27416   0.26107   1.000
    O380    O    0.08131   0.74046   0.24039   1.000
    O381    O    0.03093   0.77419   0.26111   1.000
    O382    O    0.58132   0.74046   0.24039   1.000
    O383    O    0.53093   0.77419   0.26111   1.000
    O384    O    0.57668   0.18939   0.29053   1.000
    O385    O    0.07667   0.18939   0.29053   1.000
    O386    O    0.57694   0.68933   0.29055   1.000
    O387    O    0.07693   0.68933   0.29055   1.000
    O388    O    0.42977   0.61104   0.26784   1.000
    O389    O    0.41356   0.65069   0.27187   1.000
    O390    O    0.92978   0.61104   0.26784   1.000
    O391    O    0.91357   0.65069   0.27192   1.000
    O392    O    0.42948   0.11117   0.26797   1.000
    O393    O    0.41318   0.15078   0.27196   1.000
    O394    O    0.92949   0.11117   0.26797   1.000
    O395    O    0.91319   0.15077   0.27196   1.000
    O396    O    0.00521   0.62857   0.30361   1.000
    O397    O    0.50521   0.62857   0.30365   1.000
    O398    O    0.00496   0.12870   0.30372   1.000
    O399    O    0.50496   0.12870   0.30372   1.000
    O400    O    0.02258   0.33407   0.29427   1.000
    O401    O    0.97193   0.28724   0.34803   1.000
    O402    O    0.52259   0.33407   0.29427   1.000
    O403    O    0.47192   0.28724   0.34803   1.000
    O404    O    0.52279   0.83413   0.29426   1.000
    O405    O    0.47235   0.78718   0.34810   1.000
    O406    O    0.02279   0.83413   0.29426   1.000
    O407    O    0.97236   0.78718   0.34810   1.000
    O408    O    0.58109   0.88763   0.32360   1.000
    O409    O    0.08107   0.88763   0.32360   1.000
    O410    O    0.58099   0.38750   0.32364   1.000
    O411    O    0.08098   0.38750   0.32363   1.000
    O412    O    0.58262   0.63027   0.32798   1.000
    O413    O    0.64169   0.61024   0.34758   1.000
    O414    O    0.08261   0.63027   0.32798   1.000
    O415    O    0.14169   0.61024   0.34757   1.000
    O416    O    0.58238   0.13039   0.32802   1.000
    O417    O    0.64145   0.11039   0.34773   1.000
    O418    O    0.08237   0.13039   0.32806   1.000
    O419    O    0.14143   0.11039   0.34777   1.000
    O420    O    0.06604   0.67450   0.39639   1.000
    O421    O    0.56605   0.67450   0.39636   1.000
    O422    O    0.06568   0.17469   0.39634   1.000
    O423    O    0.56569   0.17469   0.39634   1.000
    O424    O    0.85185   0.24592   0.37233   1.000
    O425    O    0.35183   0.24592   0.37233   1.000
    O426    O    0.85239   0.74548   0.37251   1.000
    O427    O    0.35239   0.74548   0.37252   1.000
    O428    O    0.11954   0.87611   0.37185   1.000
    O429    O    0.61955   0.87611   0.37185   1.000
    O430    O    0.11935   0.37591   0.37193   1.000
    O431    O    0.61936   0.37592   0.37193   1.000
    O432    O    0.19808   0.64584   0.38636   1.000
    O433    O    0.69809   0.64584   0.38637   1.000
    O434    O    0.19777   0.14601   0.38666   1.000
    O435    O    0.69778   0.14601   0.38666   1.000
    O436    O    0.91056   0.27350   0.40235   1.000
    O437    O    0.86479   0.26691   0.44062   1.000
    O438    O    0.41055   0.27350   0.40235   1.000
    O439    O    0.36478   0.26691   0.44062   1.000
    O440    O    0.91108   0.77322   0.40249   1.000
    O441    O    0.86531   0.76649   0.44076   1.000
    O442    O    0.41107   0.77322   0.40249   1.000
    O443    O    0.36531   0.76649   0.44080   1.000
    O444    O    0.73564   0.71168   0.45176   1.000
    O445    O    0.23563   0.71168   0.45177   1.000
    O446    O    0.46323   0.30125   0.44625   1.000
    O447    O    0.96324   0.30125   0.44625   1.000
    O448    O    0.46373   0.80111   0.44635   1.000
    O449    O    0.96374   0.80111   0.44635   1.000
    O450    O    0.73519   0.21200   0.45191   1.000
    O451    O    0.23518   0.21200   0.45191   1.000
    O452    O    0.04789   0.18763   0.48679   1.000
    O453    O    0.10875   0.20911   0.49117   1.000
    O454    O    0.54790   0.18763   0.48679   1.000
    O455    O    0.60876   0.20911   0.49117   1.000
    O456    O    0.54838   0.68745   0.48686   1.000
    O457    O    0.60925   0.70875   0.49129   1.000
    O458    O    0.04837   0.68745   0.48689   1.000
    O459    O    0.10925   0.70875   0.49132   1.000
    O460    O    0.80319   0.26178   0.49002   1.000
    O461    O    0.89082   0.29122   0.50865   1.000
    O462    O    0.30317   0.26178   0.49002   1.000
    O463    O    0.39081   0.29122   0.50865   1.000
    O464    O    0.80371   0.76133   0.49011   1.000
    O465    O    0.89131   0.79086   0.50876   1.000
    O466    O    0.30370   0.76133   0.49015   1.000
    O467    O    0.39130   0.79086   0.50880   1.000
    O468    O    0.49116   0.17133   0.49789   1.000
    O469    O    0.99115   0.17133   0.49789   1.000
    O470    O    0.99163   0.67132   0.49795   1.000
    O471    O    0.49163   0.67132   0.49795   1.000
    O472    O    0.00844   0.32866   0.50201   1.000
    O473    O    0.95169   0.31252   0.51308   1.000
    O474    O    0.50843   0.32866   0.50201   1.000
    O475    O    0.45168   0.31252   0.51308   1.000
    O476    O    0.50891   0.82864   0.50207   1.000
    O477    O    0.45216   0.81234   0.51318   1.000
    O478    O    0.00891   0.82864   0.50207   1.000
    O479    O    0.95217   0.81234   0.51318   1.000
    O480    O    0.69636   0.23864   0.50982   1.000
    O481    O    0.76443   0.28829   0.54819   1.000
    O482    O    0.19635   0.23864   0.50982   1.000
    O483    O    0.26442   0.28829   0.54819   1.000
    O484    O    0.69689   0.73818   0.50994   1.000
    O485    O    0.76488   0.78797   0.54805   1.000
    O486    O    0.19688   0.73818   0.50994   1.000
    O487    O    0.26487   0.78797   0.54805   1.000
    O488    O    0.03632   0.19886   0.55361   1.000
    O489    O    0.53633   0.19886   0.55361   1.000
    O490    O    0.03682   0.69873   0.55371   1.000
    O491    O    0.53683   0.69873   0.55371   1.000
    O492    O    0.13475   0.23348   0.55917   1.000
    O493    O    0.63476   0.23348   0.55917   1.000
    O494    O    0.13527   0.73306   0.55935   1.000
    O495    O    0.63528   0.73306   0.55935   1.000
    O496    O    0.93402   0.32547   0.60357   1.000
    O497    O    0.43401   0.32547   0.60357   1.000
    O498    O    0.93437   0.82528   0.60362   1.000
    O499    O    0.43437   0.82528   0.60362   1.000
    O500    O    0.30228   0.85397   0.61329   1.000
    O501    O    0.80229   0.85397   0.61329   1.000
    O502    O    0.08898   0.22675   0.59747   1.000
    O503    O    0.02770   0.21280   0.65187   1.000
    O504    O    0.58899   0.22675   0.59747   1.000
    O505    O    0.52771   0.21280   0.65187   1.000
    O506    O    0.58952   0.72647   0.59762   1.000
    O507    O    0.52814   0.71273   0.65193   1.000
    O508    O    0.08951   0.72647   0.59762   1.000
    O509    O    0.02813   0.71273   0.65191   1.000
    O510    O    0.30196   0.35415   0.61358   1.000
    O511    O    0.80198   0.35414   0.61358   1.000
    O512    O    0.64768   0.25449   0.62745   1.000
    O513    O    0.14767   0.25449   0.62743   1.000
    O514    O    0.64823   0.75405   0.62763   1.000
    O515    O    0.14822   0.75405   0.62761   1.000
    O516    O    0.38070   0.62407   0.62803   1.000
    O517    O    0.88072   0.62407   0.62803   1.000
    O518    O    0.38051   0.12387   0.62811   1.000
    O519    O    0.88052   0.12387   0.62810   1.000
    O520    O    0.85862   0.88959   0.65218   1.000
    O521    O    0.35861   0.88959   0.65219   1.000
    O522    O    0.85837   0.38974   0.65237   1.000
    O523    O    0.35836   0.38974   0.65237   1.000
    O524    O    0.91908   0.61248   0.67632   1.000
    O525    O    0.41906   0.61248   0.67632   1.000
    O526    O    0.91898   0.11235   0.67636   1.000
    O527    O    0.41897   0.11235   0.67637   1.000
    O528    O    0.41767   0.86959   0.67190   1.000
    O529    O    0.49509   0.87127   0.69624   1.000
    O530    O    0.42338   0.81059   0.70944   1.000
    O531    O    0.91768   0.86959   0.67190   1.000
    O532    O    0.99509   0.87127   0.69621   1.000
    O533    O    0.92338   0.81058   0.70944   1.000
    O534    O    0.41743   0.36971   0.67197   1.000
    O535    O    0.49484   0.37141   0.69630   1.000
    O536    O    0.42311   0.31065   0.70941   1.000
    O537    O    0.91743   0.36971   0.67198   1.000
    O538    O    0.99484   0.37141   0.69630   1.000
    O539    O    0.92312   0.31065   0.70941   1.000
    O540    O    0.47747   0.66591   0.70569   1.000
    O541    O    0.97747   0.66591   0.70567   1.000
    O542    O    0.47726   0.16585   0.70570   1.000
    O543    O    0.97726   0.16585   0.70571   1.000
    O544    O    0.96945   0.72582   0.73887   1.000
    O545    O    0.04738   0.71859   0.76106   1.000
    O546    O    0.96912   0.22579   0.73885   1.000
    O547    O    0.04707   0.21856   0.76104   1.000
    O548    O    0.46912   0.22579   0.73885   1.000
    O549    O    0.54708   0.21856   0.76104   1.000
    O550    O    0.46945   0.72582   0.73890   1.000
    O551    O    0.54739   0.71859   0.76108   1.000
    O552    O    0.58688   0.84920   0.72801   1.000
    O553    O    0.08687   0.84920   0.72800   1.000
    O554    O    0.08649   0.34929   0.72804   1.000
    O555    O    0.58649   0.34929   0.72804   1.000
    O556    O    0.07056   0.88881   0.73196   1.000
    O557    O    0.57057   0.88881   0.73199   1.000
    O558    O    0.57029   0.38893   0.73207   1.000
    O559    O    0.07028   0.38894   0.73207   1.000
    O560    O    0.91875   0.25952   0.75957   1.000
    O561    O    0.87667   0.27590   0.77321   1.000
    O562    O    0.41874   0.25952   0.75957   1.000
    O563    O    0.37666   0.27590   0.77321   1.000
    O564    O    0.91905   0.75952   0.75965   1.000
    O565    O    0.87696   0.77588   0.77328   1.000
    O566    O    0.41904   0.75952   0.75965   1.000
    O567    O    0.37695   0.77589   0.77328   1.000
    O568    O    0.41618   0.22502   0.80013   1.000
    O569    O    0.91619   0.22502   0.80013   1.000
    O570    O    0.91651   0.72503   0.80022   1.000
    O571    O    0.41650   0.72503   0.80022   1.000
    O572    O    0.12772   0.17240   0.80100   1.000
    O573    O    0.62774   0.17240   0.80100   1.000
    O574    O    0.12805   0.67245   0.80109   1.000
    O575    O    0.62806   0.67245   0.80109   1.000
    O576    O    0.83316   0.28534   0.79642   1.000
    O577    O    0.33315   0.28534   0.79642   1.000
    O578    O    0.83345   0.78533   0.79649   1.000
    O579    O    0.33344   0.78533   0.79649   1.000
    O580    O    0.84750   0.25098   0.82345   1.000
    O581    O    0.34749   0.25098   0.82345   1.000
    O582    O    0.84780   0.75098   0.82353   1.000
    O583    O    0.34779   0.75098   0.82353   1.000
    O584    O    0.11105   0.20883   0.81939   1.000
    O585    O    0.10471   0.24723   0.85148   1.000
    O586    O    0.61107   0.20883   0.81939   1.000
    O587    O    0.60472   0.24723   0.85147   1.000
    O588    O    0.11135   0.70887   0.81946   1.000
    O589    O    0.10498   0.74726   0.85153   1.000
    O590    O    0.61136   0.70886   0.81946   1.000
    O591    O    0.60500   0.74726   0.85153   1.000
    O592    O    0.15841   0.20392   0.86147   1.000
    O593    O    0.65843   0.20392   0.86147   1.000
    O594    O    0.15874   0.70399   0.86154   1.000
    O595    O    0.65875   0.70398   0.86154   1.000
    O596    O    0.37150   0.22002   0.83969   1.000
    O597    O    0.40332   0.19271   0.84452   1.000
    O598    O    0.87151   0.22002   0.83969   1.000
    O599    O    0.90333   0.19271   0.84452   1.000
    O600    O    0.37181   0.72003   0.83978   1.000
    O601    O    0.40365   0.69272   0.84462   1.000
    O602    O    0.87183   0.72003   0.83978   1.000
    O603    O    0.90366   0.69272   0.84462   1.000
    O604    O    0.30885   0.21057   0.89132   1.000
    O605    O    0.80887   0.21057   0.89132   1.000
    O606    O    0.80916   0.71060   0.89139   1.000
    O607    O    0.30915   0.71060   0.89139   1.000
    O608    O    0.60994   0.28712   0.89644   1.000
    O609    O    0.64782   0.26707   0.91436   1.000
    O610    O    0.10992   0.28712   0.89644   1.000
    O611    O    0.14780   0.26707   0.91437   1.000
    O612    O    0.61020   0.78716   0.89647   1.000
    O613    O    0.64811   0.76713   0.91440   1.000
    O614    O    0.11019   0.78716   0.89647   1.000
    O615    O    0.14809   0.76713   0.91440   1.000
    O616    O    0.74861   0.09330   0.90331   1.000
    O617    O    0.74739   0.14692   0.91298   1.000
    O618    O    0.24859   0.09330   0.90331   1.000
    O619    O    0.24737   0.14692   0.91298   1.000
    O620    O    0.74868   0.59334   0.90330   1.000
    O621    O    0.74758   0.64699   0.91301   1.000
    O622    O    0.24866   0.59334   0.90330   1.000
    O623    O    0.24757   0.64699   0.91301   1.000
    O624    O    0.72886   0.20342   0.91604   1.000
    O625    O    0.68062   0.24006   0.91962   1.000
    O626    O    0.22885   0.20342   0.91604   1.000
    O627    O    0.18061   0.24005   0.91962   1.000
    O628    O    0.72917   0.70350   0.91610   1.000
    O629    O    0.68094   0.74014   0.91967   1.000
    O630    O    0.22915   0.70350   0.91610   1.000
    O631    O    0.18093   0.74014   0.91967   1.000
    O632    O    0.80784   0.60246   0.93505   1.000
    O633    O    0.30783   0.60246   0.93495   1.000
    O634    O    0.80779   0.10248   0.93508   1.000
    O635    O    0.30778   0.10248   0.93508   1.000
    N636    N    0.73752   0.52351   0.38945   1.000
    O637    O    0.71278   0.55836   0.38130   1.000
    O638    O    0.68943   0.47544   0.37388   1.000
    N639    N    0.23751   0.52351   0.38939   1.000
    O640    O    0.18942   0.47544   0.37383   1.000
    O641    O    0.21277   0.55836   0.38129   1.000
    N642    N    0.73745   0.02377   0.38949   1.000
    O643    O    0.71264   0.05859   0.38145   1.000
    O644    O    0.68942   0.97567   0.37389   1.000
    N645    N    0.75010   0.04649   0.14441   1.000
    O646    O    0.74217   0.99756   0.12290   1.000
    O647    O    0.80916   0.07439   0.18725   1.000
    N648    N    0.24995   0.95349   0.85554   1.000
    O649    O    0.25789   0.00242   0.87705   1.000
    O650    O    0.19090   0.92559   0.81270   1.000
    N651    N    0.26253   0.47647   0.61047   1.000
    O652    O    0.31062   0.52454   0.62606   1.000
    O653    O    0.28728   0.44162   0.61860   1.000
    N654    N    0.76254   0.47647   0.61048   1.000
    O655    O    0.78729   0.44162   0.61861   1.000
    O656    O    0.81064   0.52454   0.62606   1.000
    N657    N    0.74975   0.45343   0.85549   1.000
    O658    O    0.69066   0.42559   0.81270   1.000
    O659    O    0.75778   0.50239   0.87701   1.000
    N660    N    0.23744   0.02377   0.38953   1.000
    O661    O    0.21262   0.05859   0.38147   1.000
    O662    O    0.18941   0.97567   0.37389   1.000
    N663    N    0.26260   0.97621   0.61040   1.000
    O664    O    0.28742   0.94139   0.61847   1.000
    O665    O    0.31063   0.02431   0.62604   1.000
    N666    N    0.25009   0.04649   0.14441   1.000
    O667    O    0.30915   0.07439   0.18725   1.000
    O668    O    0.24215   0.99756   0.12290   1.000
    N669    N    0.24973   0.45343   0.85549   1.000
    O670    O    0.25777   0.50239   0.87701   1.000
    O671    O    0.19064   0.42559   0.81270   1.000
    N672    N    0.74996   0.95349   0.85554   1.000
    O673    O    0.69091   0.92559   0.81270   1.000
    O674    O    0.75790   0.00242   0.87705   1.000
    N675    N    0.75032   0.54655   0.14445   1.000
    O676    O    0.80941   0.57439   0.18725   1.000
    O677    O    0.74228   0.49759   0.12294   1.000
    N678    N    0.76262   0.97621   0.61040   1.000
    O679    O    0.81065   0.02431   0.62603   1.000
    O680    O    0.78743   0.94139   0.61847   1.000
    N681    N    0.25031   0.54655   0.14444   1.000
    O682    O    0.24227   0.49759   0.12293   1.000
    O683    O    0.30940   0.57439   0.18722   1.000
loop_
    _geom_bond_atom_site_label_1
    _geom_bond_atom_site_label_2
    _geom_bond_distance
    _geom_bond_site_symmetry_2
    _ccdc_geom_bond_type
    Zr272  O292      0.62929      .   S
    Zr120  O292      0.62929      .   S
    Zr275  O293      0.62910      .   S
    Zr123  O293      0.62910      .   S
    Zr273  O294      0.62910      .   S
    Zr121  O294      0.62910      .   S
    Zr274  O295      0.62917      .   S
    Zr122  O295      0.62917      .   S
    Zr184  O296      0.69050      .   S
    Zr188  O296      0.69050      .   S
    Zr184  O297      0.66761      .   S
    Zr112  O297      0.66761      .   S
    Zr184  O298      1.00836  1_554   S
    Zr20   O298      1.00836      .   S
    Zr185  O299      0.69048      .   S
    Zr189  O299      0.69048      .   S
    Zr185  O300      0.66775      .   S
    Zr113  O300      0.66775      .   S
    Zr185  O301      1.00811  1_554   S
    Zr21   O301      1.00811      .   S
    Zr186  O302      0.69050      .   S
    Zr190  O302      0.69050      .   S
    Zr186  O303      0.66762      .   S
    Zr114  O303      0.66762      .   S
    Zr186  O304      1.00836  1_554   S
    Zr22   O304      1.00836      .   S
    Zr187  O305      0.69052      .   S
    Zr191  O305      0.69052      .   S
    Zr187  O306      0.66763      .   S
    Zr115  O306      0.66763      .   S
    Zr187  O307      1.00830  1_554   S
    Zr23   O307      1.00830      .   S
    Zr10   O308      1.02610      .   S
    Zr190  O308      1.02610      .   S
    Zr10   O309      0.98549      .   S
    Zr270  O309      0.98549      .   S
    Zr10   O310      1.03003      .   S
    Zr166  O310      1.03003      .   S
    Zr10   O311      1.00835      .   S
    Zr222  O311      1.00835  1_556   S
    Zr8    O312      1.02609      .   S
    Zr188  O312      1.02609      .   S
    Zr8    O313      0.98549      .   S
    Zr268  O313      0.98549      .   S
    Zr8    O314      1.03003      .   S
    Zr164  O314      1.03003      .   S
    Zr8    O315      1.00835      .   S
    Zr220  O315      1.00835  1_556   S
    Zr11   O316      1.02636      .   S
    Zr191  O316      1.02636      .   S
    Zr11   O317      0.98542      .   S
    Zr271  O317      0.98542      .   S
    Zr11   O318      1.03026      .   S
    Zr167  O318      1.03026      .   S
    Zr11   O319      1.00836      .   S
    Zr223  O319      1.00836  1_556   S
    Zr9    O320      1.02631      .   S
    Zr189  O320      1.02631      .   S
    Zr9    O321      0.98542      .   S
    Zr269  O321      0.98542      .   S
    Zr9    O322      1.03026      .   S
    Zr165  O322      1.03026      .   S
    Zr9    O323      1.00836      .   S
    Zr221  O323      1.00836  1_556   S
    Zr121  O324      0.65184      .   S
    Zr269  O324      0.65184      .   S
    Zr123  O325      0.65183      .   S
    Zr271  O325      0.65183      .   S
    Zr120  O326      0.65179      .   S
    Zr268  O326      0.65179      .   S
    Zr122  O327      0.65179      .   S
    Zr270  O327      0.65179      .   S
    Zr50   O328      0.54206      .   S
    Zr114  O328      0.54206      .   S
    Zr48   O329      0.54206      .   S
    Zr112  O329      0.54206      .   S
    Zr49   O330      0.54207      .   S
    Zr113  O330      0.54207      .   S
    Zr51   O331      0.54206      .   S
    Zr115  O331      0.54206      .   S
    Zr188  O332      0.66730      .   S
    Zr108  O332      0.66730      .   S
    Zr190  O333      0.66729      .   S
    Zr110  O333      0.66729      .   S
    Zr189  O334      0.66786      .   S
    Zr109  O334      0.66786      .   S
    Zr191  O335      0.66765      .   S
    Zr111  O335      0.66765      .   S
    Zr112  O336      0.67708      .   S
    Zr180  O336      0.67708      .   S
    Zr114  O337      0.67708      .   S
    Zr182  O337      0.67708      .   S
    Zr115  O338      0.67705      .   S
    Zr183  O338      0.67705      .   S
    Zr113  O339      0.67705      .   S
    Zr181  O339      0.67705      .   S
    Zr28   O340      0.54276      .   S
    Zr92   O340      0.54276      .   S
    Zr30   O341      0.54276      .   S
    Zr94   O341      0.54276      .   S
    Zr29   O342      0.54277      .   S
    Zr93   O342      0.54277      .   S
    Zr31   O343      0.54279      .   S
    Zr95   O343      0.54279      .   S
    Zr164  O344      0.67957      .   S
    Zr92   O344      0.67957      .   S
    Zr164  O345      0.67732      .   S
    Zr96   O345      0.67732      .   S
    Zr166  O346      0.67957      .   S
    Zr94   O346      0.67957      .   S
    Zr166  O347      0.67732      .   S
    Zr98   O347      0.67732      .   S
    Zr165  O348      0.67958      .   S
    Zr93   O348      0.67958      .   S
    Zr165  O349      0.67731      .   S
    Zr97   O349      0.67731      .   S
    Zr167  O350      0.67957      .   S
    Zr95   O350      0.67957      .   S
    Zr167  O351      0.67737      .   S
    Zr99   O351      0.67737      .   S
    Zr94   O352      0.66505      .   S
    Zr162  O352      0.66505      .   S
    Zr92   O353      0.66504      .   S
    Zr160  O353      0.66504      .   S
    Zr93   O354      0.66498      .   S
    Zr161  O354      0.66498      .   S
    Zr95   O355      0.66499      .   S
    Zr163  O355      0.66499      .   S
    Zr110  O356      0.67707      .   S
    Zr182  O356      0.67707      .   S
    Zr110  O357      0.54244      .   S
    Zr46   O357      0.54244      .   S
    Zr108  O358      0.67706      .   S
    Zr180  O358      0.67706      .   S
    Zr108  O359      0.54281      .   S
    Zr44   O359      0.54281      .   S
    Zr111  O360      0.67705      .   S
    Zr183  O360      0.67705      .   S
    Zr111  O361      0.54255      .   S
    Zr47   O361      0.54255      .   S
    Zr109  O362      0.67706      .   S
    Zr181  O362      0.67706      .   S
    Zr109  O363      0.54254      .   S
    Zr45   O363      0.54254      .   S
    Zr180  O364      1.04584      .   S
    Zr0    O364      1.04584      .   S
    Zr182  O365      1.04581      .   S
    Zr2    O365      1.04581      .   S
    Zr183  O366      1.04582      .   S
    Zr3    O366      1.04582      .   S
    Zr181  O367      1.04584      .   S
    Zr1    O367      1.04584      .   S
    Zr98   O368      0.54222      .   S
    Zr34   O368      0.54222      .   S
    Zr98   O369      0.66787      .   S
    Zr158  O369      0.66787      .   S
    Zr96   O370      0.54221      .   S
    Zr32   O370      0.54221      .   S
    Zr96   O371      0.66786      .   S
    Zr156  O371      0.66786      .   S
    Zr97   O372      0.54221      .   S
    Zr33   O372      0.54221      .   S
    Zr97   O373      0.66792      .   S
    Zr157  O373      0.66792      .   S
    Zr99   O374      0.54220      .   S
    Zr35   O374      0.54220      .   S
    Zr99   O375      0.66789      .   S
    Zr159  O375      0.66789      .   S
    Zr160  O376      0.68844      .   S
    Zr156  O376      0.68844      .   S
    Zr160  O377      1.02876      .   S
    Zr2    O377      1.02876  1_655   S
    Zr162  O378      0.68845      .   S
    Zr158  O378      0.68845      .   S
    Zr162  O379      1.02892      .   S
    Zr0    O379      1.02892      .   S
    Zr161  O380      0.68850      .   S
    Zr157  O380      0.68850      .   S
    Zr161  O381      1.02852      .   S
    Zr3    O381      1.02852  1_655   S
    Zr163  O382      0.68851      .   S
    Zr159  O382      0.68851      .   S
    Zr163  O383      1.02867      .   S
    Zr1    O383      1.02867      .   S
    Zr158  O384      1.01058      .   S
    Zr18   O384      1.01058      .   S
    Zr156  O385      1.01057      .   S
    Zr16   O385      1.01057      .   S
    Zr159  O386      1.01088      .   S
    Zr19   O386      1.01088      .   S
    Zr157  O387      1.01087      .   S
    Zr17   O387      1.01087      .   S
    Zr117  O388      0.64793      .   S
    Zr265  O388      0.64793      .   S
    Zr117  O389      0.63042      .   S
    Zr261  O389      0.63042      .   S
    Zr119  O390      0.64770      .   S
    Zr267  O390      0.64770      .   S
    Zr119  O391      0.63031      .   S
    Zr263  O391      0.63031      .   S
    Zr116  O392      0.64778      .   S
    Zr264  O392      0.64778      .   S
    Zr116  O393      0.63032      .   S
    Zr260  O393      0.63032      .   S
    Zr118  O394      0.64778      .   S
    Zr266  O394      0.64778      .   S
    Zr118  O395      0.63032      .   S
    Zr262  O395      0.63032      .   S
    Zr267  O396      0.97881  1_655   S
    Zr17   O396      0.97881      .   S
    Zr265  O397      0.97879      .   S
    Zr19   O397      0.97879      .   S
    Zr266  O398      0.97850  1_655   S
    Zr16   O398      0.97850      .   S
    Zr264  O399      0.97860      .   S
    Zr18   O399      0.97860      .   S
    Zr2    O400      1.02389  1_655   S
    Zr284  O400      1.02389      .   S
    Zr2    O401      1.02833      .   S
    Zr178  O401      1.02833      .   S
    Zr0    O402      1.02389      .   S
    Zr286  O402      1.02389      .   S
    Zr0    O403      1.02835      .   S
    Zr176  O403      1.02835      .   S
    Zr1    O404      1.02405      .   S
    Zr287  O404      1.02405      .   S
    Zr1    O405      1.02791      .   S
    Zr177  O405      1.02791      .   S
    Zr3    O406      1.02407  1_655   S
    Zr285  O406      1.02407      .   S
    Zr3    O407      1.02791      .   S
    Zr179  O407      1.02791      .   S
    Zr287  O408      0.64789      .   S
    Zr131  O408      0.64789      .   S
    Zr285  O409      0.64791      .   S
    Zr129  O409      0.64791      .   S
    Zr286  O410      0.64789      .   S
    Zr130  O410      0.64789      .   S
    Zr284  O411      0.64790      .   S
    Zr128  O411      0.64790      .   S
    Zr283  O412      0.99054      .   S
    Zr19   O412      0.99054      .   S
    Zr283  O413      0.63802      .   S
    Zr127  O413      0.63802      .   S
    Zr281  O414      0.99053      .   S
    Zr17   O414      0.99053      .   S
    Zr281  O415      0.63801      .   S
    Zr125  O415      0.63801      .   S
    Zr282  O416      0.99035      .   S
    Zr18   O416      0.99035      .   S
    Zr282  O417      0.63829      .   S
    Zr126  O417      0.63829      .   S
    Zr280  O418      0.99031      .   S
    Zr16   O418      0.99031      .   S
    Zr280  O419      0.63810      .   S
    Zr124  O419      0.63810      .   S
    Zr17   O420      1.01988      .   S
    Zr205  O420      1.01988      .   S
    Zr19   O421      1.01945      .   S
    Zr207  O421      1.01945      .   S
    Zr16   O422      1.01948      .   S
    Zr204  O422      1.01948      .   S
    Zr18   O423      1.01948      .   S
    Zr206  O423      1.01948      .   S
    Zr42   O424      0.54068      .   S
    Zr106  O424      0.54068      .   S
    Zr40   O425      0.54069      .   S
    Zr104  O425      0.54069      .   S
    Zr43   O426      0.54081      .   S
    Zr107  O426      0.54081      .   S
    Zr41   O427      0.54067      .   S
    Zr105  O427      0.54067      .   S
    Zr129  O428      0.63050      .   S
    Zr289  O428      0.63050      .   S
    Zr131  O429      0.63051      .   S
    Zr291  O429      0.63051      .   S
    Zr128  O430      0.63054      .   S
    Zr288  O430      0.63054      .   S
    Zr130  O431      0.63053      .   S
    Zr290  O431      0.63053      .   S
    Zr125  O432      0.64278      .   S
    Zr277  O432      0.64278      .   S
    Zr127  O433      0.64278      .   S
    Zr279  O433      0.64278      .   S
    Zr124  O434      0.64272      .   S
    Zr276  O434      0.64272      .   S
    Zr126  O435      0.64273      .   S
    Zr278  O435      0.64273      .   S
    Zr106  O436      0.67456      .   S
    Zr178  O436      0.67456      .   S
    Zr106  O437      0.66833      .   S
    Zr174  O437      0.66833      .   S
    Zr104  O438      0.67457      .   S
    Zr176  O438      0.67457      .   S
    Zr104  O439      0.66832      .   S
    Zr172  O439      0.66832      .   S
    Zr107  O440      0.67455      .   S
    Zr179  O440      0.67455      .   S
    Zr107  O441      0.66780      .   S
    Zr175  O441      0.66780      .   S
    Zr105  O442      0.67455      .   S
    Zr177  O442      0.67455      .   S
    Zr105  O443      0.66837      .   S
    Zr173  O443      0.66837      .   S
    Zr279  O444      1.03411      .   S
    Zr27   O444      1.03411      .   S
    Zr277  O445      1.03406      .   S
    Zr25   O445      1.03406      .   S
    Zr176  O446      0.67728      .   S
    Zr100  O446      0.67728      .   S
    Zr178  O447      0.67729      .   S
    Zr102  O447      0.67729      .   S
    Zr177  O448      0.67722      .   S
    Zr101  O448      0.67722      .   S
    Zr179  O449      0.67722      .   S
    Zr103  O449      0.67722      .   S
    Zr278  O450      1.03505      .   S
    Zr26   O450      1.03505      .   S
    Zr276  O451      1.03505      .   S
    Zr24   O451      1.03505      .   S
    Zr204  O452      0.66759      .   S
    Zr140  O452      0.66759      .   S
    Zr204  O453      0.69152      .   S
    Zr208  O453      0.69152      .   S
    Zr206  O454      0.66759      .   S
    Zr142  O454      0.66759      .   S
    Zr206  O455      0.69153      .   S
    Zr210  O455      0.69153      .   S
    Zr207  O456      0.66785      .   S
    Zr143  O456      0.66785      .   S
    Zr207  O457      0.69183      .   S
    Zr211  O457      0.69183      .   S
    Zr205  O458      0.66754      .   S
    Zr141  O458      0.66754      .   S
    Zr205  O459      0.69162      .   S
    Zr209  O459      0.69162      .   S
    Zr174  O460      1.01221      .   S
    Zr26   O460      1.01221      .   S
    Zr174  O461      0.69163      .   S
    Zr170  O461      0.69163      .   S
    Zr172  O462      1.01222      .   S
    Zr24   O462      1.01222      .   S
    Zr172  O463      0.69162      .   S
    Zr168  O463      0.69162      .   S
    Zr175  O464      1.01191      .   S
    Zr27   O464      1.01191      .   S
    Zr175  O465      0.69175      .   S
    Zr171  O465      0.69175      .   S
    Zr173  O466      1.01171      .   S
    Zr25   O466      1.01171      .   S
    Zr173  O467      0.69149      .   S
    Zr169  O467      0.69149      .   S
    Zr60   O468      0.54207      .   S
    Zr142  O468      0.54207      .   S
    Zr62   O469      0.54198      .   S
    Zr140  O469      0.54198  1_455   S
    Zr63   O470      0.54198      .   S
    Zr141  O470      0.54198  1_455   S
    Zr61   O471      0.54207      .   S
    Zr143  O471      0.54207      .   S
    Zr102  O472      0.54198  1_655   S
    Zr36   O472      0.54198      .   S
    Zr102  O473      0.66754      .   S
    Zr170  O473      0.66754      .   S
    Zr100  O474      0.54207      .   S
    Zr38   O474      0.54207      .   S
    Zr100  O475      0.66753      .   S
    Zr168  O475      0.66753      .   S
    Zr101  O476      0.54207      .   S
    Zr39   O476      0.54207      .   S
    Zr101  O477      0.66759      .   S
    Zr169  O477      0.66759      .   S
    Zr103  O478      0.54197  1_655   S
    Zr37   O478      0.54197      .   S
    Zr103  O479      0.66760      .   S
    Zr171  O479      0.66760      .   S
    Zr26   O480      1.01176      .   S
    Zr210  O480      1.01176      .   S
    Zr26   O481      1.03415      .   S
    Zr246  O481      1.03415      .   S
    Zr24   O482      1.01175      .   S
    Zr208  O482      1.01175      .   S
    Zr24   O483      1.03411      .   S
    Zr244  O483      1.03411      .   S
    Zr27   O484      1.01223      .   S
    Zr211  O484      1.01223      .   S
    Zr27   O485      1.03511      .   S
    Zr247  O485      1.03511      .   S
    Zr25   O486      1.01224      .   S
    Zr209  O486      1.01224      .   S
    Zr25   O487      1.03509      .   S
    Zr245  O487      1.03509      .   S
    Zr140  O488      0.67722      .   S
    Zr212  O488      0.67722      .   S
    Zr142  O489      0.67722      .   S
    Zr214  O489      0.67722      .   S
    Zr141  O490      0.67727      .   S
    Zr213  O490      0.67727      .   S
    Zr143  O491      0.67728      .   S
    Zr215  O491      0.67728      .   S
    Zr208  O492      0.66831      .   S
    Zr144  O492      0.66831      .   S
    Zr210  O493      0.66830      .   S
    Zr146  O493      0.66830      .   S
    Zr209  O494      0.66833      .   S
    Zr145  O494      0.66833      .   S
    Zr211  O495      0.66833      .   S
    Zr147  O495      0.66833      .   S
    Zr170  O496      1.01984      .   S
    Zr6    O496      1.01984      .   S
    Zr168  O497      1.01984      .   S
    Zr4    O497      1.01984      .   S
    Zr171  O498      1.01950      .   S
    Zr7    O498      1.01950      .   S
    Zr169  O499      1.01951      .   S
    Zr5    O499      1.01951      .   S
    Zr245  O500      0.64271      .   S
    Zr85   O500      0.64271      .   S
    Zr247  O501      0.64272      .   S
    Zr87   O501      0.64272      .   S
    Zr212  O502      0.67456      .   S
    Zr144  O502      0.67456      .   S
    Zr212  O503      1.02795      .   S
    Zr12   O503      1.02795      .   S
    Zr214  O504      0.67456      .   S
    Zr146  O504      0.67456      .   S
    Zr214  O505      1.02797      .   S
    Zr14   O505      1.02797      .   S
    Zr215  O506      0.67457      .   S
    Zr147  O506      0.67457      .   S
    Zr215  O507      1.02840      .   S
    Zr15   O507      1.02840      .   S
    Zr213  O508      0.67457      .   S
    Zr145  O508      0.67457      .   S
    Zr213  O509      1.02805      .   S
    Zr13   O509      1.02805      .   S
    Zr244  O510      0.64277      .   S
    Zr84   O510      0.64277      .   S
    Zr246  O511      0.64276      .   S
    Zr86   O511      0.64276      .   S
    Zr146  O512      0.54071      .   S
    Zr66   O512      0.54071      .   S
    Zr144  O513      0.54051      .   S
    Zr64   O513      0.54051      .   S
    Zr147  O514      0.54068      .   S
    Zr67   O514      0.54068      .   S
    Zr145  O515      0.54048      .   S
    Zr65   O515      0.54048      .   S
    Zr257  O516      0.63050      .   S
    Zr89   O516      0.63050      .   S
    Zr259  O517      0.63054      .   S
    Zr91   O517      0.63054      .   S
    Zr256  O518      0.63054      .   S
    Zr88   O518      0.63054      .   S
    Zr258  O519      0.63052      .   S
    Zr90   O519      0.63052      .   S
    Zr87   O520      0.63809      .   S
    Zr251  O520      0.63809      .   S
    Zr85   O521      0.63810      .   S
    Zr249  O521      0.63810      .   S
    Zr86   O522      0.63803      .   S
    Zr250  O522      0.63803      .   S
    Zr84   O523      0.63802      .   S
    Zr248  O523      0.63802      .   S
    Zr91   O524      0.64788      .   S
    Zr255  O524      0.64788      .   S
    Zr89   O525      0.64790      .   S
    Zr253  O525      0.64790      .   S
    Zr90   O526      0.64793      .   S
    Zr254  O526      0.64793      .   S
    Zr88   O527      0.64790      .   S
    Zr252  O527      0.64790      .   S
    Zr5    O528      0.99033      .   S
    Zr249  O528      0.99033      .   S
    Zr5    O529      0.97858      .   S
    Zr235  O529      0.97858      .   S
    Zr5    O530      1.01054      .   S
    Zr193  O530      1.01054      .   S
    Zr7    O531      0.99032      .   S
    Zr251  O531      0.99032      .   S
    Zr7    O532      0.97842      .   S
    Zr233  O532      0.97842  1_455   S
    Zr7    O533      1.01054      .   S
    Zr195  O533      1.01054      .   S
    Zr4    O534      0.99053      .   S
    Zr248  O534      0.99053      .   S
    Zr4    O535      0.97879      .   S
    Zr234  O535      0.97879      .   S
    Zr4    O536      1.01092      .   S
    Zr192  O536      1.01092      .   S
    Zr6    O537      0.99053      .   S
    Zr250  O537      0.99053      .   S
    Zr6    O538      0.97870      .   S
    Zr232  O538      0.97870  1_455   S
    Zr6    O539      1.01092      .   S
    Zr194  O539      1.01092      .   S
    Zr253  O540      1.02388      .   S
    Zr15   O540      1.02388      .   S
    Zr255  O541      1.02396      .   S
    Zr13   O541      1.02396  1_455   S
    Zr252  O542      1.02409      .   S
    Zr14   O542      1.02409      .   S
    Zr254  O543      1.02408      .   S
    Zr12   O543      1.02408  1_455   S
    Zr13   O544      1.02898  1_455   S
    Zr199  O544      1.02898      .   S
    Zr13   O545      1.04606      .   S
    Zr217  O545      1.04606      .   S
    Zr12   O546      1.02850  1_455   S
    Zr198  O546      1.02850      .   S
    Zr12   O547      1.04578      .   S
    Zr216  O547      1.04578      .   S
    Zr14   O548      1.02865      .   S
    Zr196  O548      1.02865      .   S
    Zr14   O549      1.04580      .   S
    Zr218  O549      1.04580      .   S
    Zr15   O550      1.02892      .   S
    Zr197  O550      1.02892      .   S
    Zr15   O551      1.04583      .   S
    Zr219  O551      1.04583      .   S
    Zr231  O552      0.63032      .   S
    Zr79   O552      0.63032      .   S
    Zr229  O553      0.63032      .   S
    Zr77   O553      0.63032      .   S
    Zr228  O554      0.63031      .   S
    Zr76   O554      0.63031      .   S
    Zr230  O555      0.63030      .   S
    Zr78   O555      0.63030      .   S
    Zr233  O556      0.64785      .   S
    Zr77   O556      0.64785      .   S
    Zr235  O557      0.64779      .   S
    Zr79   O557      0.64779      .   S
    Zr234  O558      0.64780      .   S
    Zr78   O558      0.64780      .   S
    Zr232  O559      0.64782      .   S
    Zr76   O559      0.64782      .   S
    Zr194  O560      0.68847      .   S
    Zr198  O560      0.68847      .   S
    Zr194  O561      0.66788      .   S
    Zr138  O561      0.66788      .   S
    Zr192  O562      0.68848      .   S
    Zr196  O562      0.68848      .   S
    Zr192  O563      0.66789      .   S
    Zr136  O563      0.66789      .   S
    Zr195  O564      0.68846      .   S
    Zr199  O564      0.68846      .   S
    Zr195  O565      0.66786      .   S
    Zr139  O565      0.66786      .   S
    Zr193  O566      0.68845      .   S
    Zr197  O566      0.68845      .   S
    Zr193  O567      0.66788      .   S
    Zr137  O567      0.66788      .   S
    Zr196  O568      0.66504      .   S
    Zr132  O568      0.66504      .   S
    Zr198  O569      0.66503      .   S
    Zr134  O569      0.66503      .   S
    Zr199  O570      0.66505      .   S
    Zr135  O570      0.66505      .   S
    Zr197  O571      0.66507      .   S
    Zr133  O571      0.66507      .   S
    Zr68   O572      0.54258      .   S
    Zr148  O572      0.54258      .   S
    Zr70   O573      0.54258      .   S
    Zr150  O573      0.54258      .   S
    Zr69   O574      0.54256      .   S
    Zr149  O574      0.54256      .   S
    Zr71   O575      0.54256      .   S
    Zr151  O575      0.54256      .   S
    Zr58   O576      0.54221      .   S
    Zr138  O576      0.54221      .   S
    Zr56   O577      0.54221      .   S
    Zr136  O577      0.54221      .   S
    Zr59   O578      0.54221      .   S
    Zr139  O578      0.54221      .   S
    Zr57   O579      0.54221      .   S
    Zr137  O579      0.54221      .   S
    Zr138  O580      0.67735      .   S
    Zr202  O580      0.67735      .   S
    Zr136  O581      0.67735      .   S
    Zr200  O581      0.67735      .   S
    Zr139  O582      0.67732      .   S
    Zr203  O582      0.67732      .   S
    Zr137  O583      0.67732      .   S
    Zr201  O583      0.67732      .   S
    Zr216  O584      0.67706      .   S
    Zr148  O584      0.67706      .   S
    Zr216  O585      0.67710      .   S
    Zr152  O585      0.67710      .   S
    Zr218  O586      0.67707      .   S
    Zr150  O586      0.67707      .   S
    Zr218  O587      0.67705      .   S
    Zr154  O587      0.67705      .   S
    Zr217  O588      0.67703      .   S
    Zr149  O588      0.67703      .   S
    Zr217  O589      0.67703      .   S
    Zr153  O589      0.67703      .   S
    Zr219  O590      0.67703      .   S
    Zr151  O590      0.67703      .   S
    Zr219  O591      0.67703      .   S
    Zr155  O591      0.67703      .   S
    Zr148  O592      0.66759      .   S
    Zr224  O592      0.66759      .   S
    Zr150  O593      0.66759      .   S
    Zr226  O593      0.66759      .   S
    Zr149  O594      0.66761      .   S
    Zr225  O594      0.66761      .   S
    Zr151  O595      0.66762      .   S
    Zr227  O595      0.66762      .   S
    Zr132  O596      0.67959      .   S
    Zr200  O596      0.67959      .   S
    Zr132  O597      0.54277      .   S
    Zr52   O597      0.54277      .   S
    Zr134  O598      0.67958      .   S
    Zr202  O598      0.67958      .   S
    Zr134  O599      0.54278      .   S
    Zr54   O599      0.54278      .   S
    Zr133  O600      0.67957      .   S
    Zr201  O600      0.67957      .   S
    Zr133  O601      0.54276      .   S
    Zr53   O601      0.54276      .   S
    Zr135  O602      0.67957      .   S
    Zr203  O602      0.67957      .   S
    Zr135  O603      0.54276      .   S
    Zr55   O603      0.54276      .   S
    Zr200  O604      1.03026      .   S
    Zr20   O604      1.03026      .   S
    Zr202  O605      1.03027      .   S
    Zr22   O605      1.03027      .   S
    Zr203  O606      1.03006      .   S
    Zr23   O606      1.03006      .   S
    Zr201  O607      1.03005      .   S
    Zr21   O607      1.03005      .   S
    Zr154  O608      0.54206      .   S
    Zr74   O608      0.54206      .   S
    Zr154  O609      0.66764      .   S
    Zr222  O609      0.66764      .   S
    Zr152  O610      0.54205      .   S
    Zr72   O610      0.54205      .   S
    Zr152  O611      0.66759      .   S
    Zr220  O611      0.66759      .   S
    Zr155  O612      0.54207      .   S
    Zr75   O612      0.54207      .   S
    Zr155  O613      0.66765      .   S
    Zr223  O613      0.66765      .   S
    Zr153  O614      0.54207      .   S
    Zr73   O614      0.54207      .   S
    Zr153  O615      0.66765      .   S
    Zr221  O615      0.66765      .   S
    Zr238  O616      0.65180      .   S
    Zr82   O616      0.65180      .   S
    Zr238  O617      0.98544      .   S
    Zr22   O617      0.98544      .   S
    Zr236  O618      0.65180      .   S
    Zr80   O618      0.65180      .   S
    Zr236  O619      0.98545      .   S
    Zr20   O619      0.98545      .   S
    Zr239  O620      0.65178      .   S
    Zr83   O620      0.65178      .   S
    Zr239  O621      0.98550      .   S
    Zr23   O621      0.98550      .   S
    Zr237  O622      0.65177      .   S
    Zr81   O622      0.65177      .   S
    Zr237  O623      0.98550      .   S
    Zr21   O623      0.98550      .   S
    Zr226  O624      1.02635      .   S
    Zr22   O624      1.02635      .   S
    Zr226  O625      0.69051      .   S
    Zr222  O625      0.69051      .   S
    Zr224  O626      1.02635      .   S
    Zr20   O626      1.02635      .   S
    Zr224  O627      0.69052      .   S
    Zr220  O627      0.69052      .   S
    Zr227  O628      1.02606      .   S
    Zr23   O628      1.02606      .   S
    Zr227  O629      0.69050      .   S
    Zr223  O629      0.69050      .   S
    Zr225  O630      1.02607      .   S
    Zr21   O630      1.02607      .   S
    Zr225  O631      0.69050      .   S
    Zr221  O631      0.69050      .   S
    Zr83   O632      0.62917      .   S
    Zr243  O632      0.62917      .   S
    Zr81   O633      0.62874      .   S
    Zr241  O633      0.62874      .   S
    Zr82   O634      0.62917      .   S
    Zr242  O634      0.62917      .   S
    Zr80   O635      0.62915      .   S
    Zr240  O635      0.62915      .   S
    N636   O637      1.14070      .   S
    Zr127  O637      1.88427      .   S
    N636   O638      1.14382      .   S
    Zr130  O638      1.89198      .   S
    N639   O640      1.14381      .   S
    Zr128  O640      1.89200      .   S
    N639   O641      1.14058      .   S
    Zr125  O641      1.88422      .   S
    N642   O643      1.14075      .   S
    Zr126  O643      1.88449      .   S
    N642   O644      1.14377  1_545   S
    Zr131  O644      1.89192      .   S
    N645   O646      1.13878  1_545   S
    Zr123  O646      1.88338      .   S
    N645   O647      1.14303      .   S
    Zr118  O647      1.88921      .   S
    N648   O649      1.13877  1_565   S
    Zr80   O649      1.88333      .   S
    N648   O650      1.14304      .   S
    Zr77   O650      1.88917      .   S
    N651   O652      1.14382      .   S
    Zr89   O652      1.89198      .   S
    N651   O653      1.14066      .   S
    Zr84   O653      1.88436      .   S
    N654   O655      1.14069      .   S
    Zr86   O655      1.88432      .   S
    N654   O656      1.14381      .   S
    Zr91   O656      1.89197      .   S
    N657   O658      1.14313      .   S
    Zr78   O658      1.88935      .   S
    N657   O659      1.13871      .   S
    Zr83   O659      1.88325      .   S
    N660   O661      1.14078      .   S
    Zr124  O661      1.88452      .   S
    N660   O662      1.14375  1_545   S
    Zr129  O662      1.89192      .   S
    N663   O664      1.14082      .   S
    Zr85   O664      1.88458      .   S
    N663   O665      1.14377  1_565   S
    Zr88   O665      1.89192      .   S
    N666   O667      1.14306      .   S
    Zr116  O667      1.88923      .   S
    N666   O668      1.13877  1_545   S
    Zr121  O668      1.88335      .   S
    N669   O670      1.13873      .   S
    Zr81   O670      1.88325      .   S
    N669   O671      1.14311      .   S
    Zr76   O671      1.88930      .   S
    N672   O673      1.14303      .   S
    Zr79   O673      1.88919      .   S
    N672   O674      1.13876  1_565   S
    Zr82   O674      1.88332      .   S
    N675   O676      1.14316      .   S
    Zr119  O676      1.88936      .   S
    N675   O677      1.13870      .   S
    Zr122  O677      1.88324      .   S
    N678   O679      1.14376  1_565   S
    Zr90   O679      1.89191      .   S
    N678   O680      1.14082      .   S
    Zr87   O680      1.88457      .   S
    N681   O682      1.13869      .   S
    Zr120  O682      1.88323      .   S
    N681   O683      1.14305      .   S
    Zr117  O683      1.88907      .   S
