# CIF file generated by openbabel 2.4.90, see http://openbabel.sf.net
data_I
_chemical_name_common ''
_cell_length_a 15.339
_cell_length_b 15.305
_cell_length_c 15.334
_cell_angle_alpha 102.202
_cell_angle_beta 102.574
_cell_angle_gamma 102.334
_space_group_name_H-M_alt 'P 1'
_space_group_name_Hall 'P 1'
loop_
    _symmetry_equiv_pos_as_xyz
    x,y,z
loop_
    _atom_site_label
    _atom_site_type_symbol
    _atom_site_fract_x
    _atom_site_fract_y
    _atom_site_fract_z
    _atom_site_occupancy
    Cu0     Cu   0.98017   0.56814   0.97995   1.000
    Cu1     Cu   0.98049   0.97980   0.56802   1.000
    Cu2     Cu   0.01980   0.43177   0.02000   1.000
    Cu3     Cu   0.43184   0.01989   0.01942   1.000
    Cu4     Cu   0.01948   0.02014   0.43189   1.000
    Cu5     Cu   0.56808   0.98003   0.98050   1.000
loop_
    _geom_bond_atom_site_label_1
    _geom_bond_atom_site_label_2
    _geom_bond_distance
    _geom_bond_site_symmetry_2
    _ccdc_geom_bond_type
    Cu5    Cu3       2.45534  1_566   S
    Cu0    Cu2       2.45439  1_656   S
    Cu1    Cu4       2.45490  1_665   S
