# CIF file generated by openbabel 2.4.90, see http://openbabel.sf.net
data_I
_chemical_name_common ''
_cell_length_a 15.339
_cell_length_b 15.305
_cell_length_c 15.334
_cell_angle_alpha 102.202
_cell_angle_beta 102.574
_cell_angle_gamma 102.334
_space_group_name_H-M_alt 'P 1'
_space_group_name_Hall 'P 1'
loop_
    _symmetry_equiv_pos_as_xyz
    x,y,z
loop_
    _atom_site_label
    _atom_site_type_symbol
    _atom_site_fract_x
    _atom_site_fract_y
    _atom_site_fract_z
    _atom_site_occupancy
    N0      N    1.00000   0.49996   0.49997   1.000
    N1      N    0.33702   0.66247   0.00005   1.000
    N2      N    0.49999   0.99999   0.49996   1.000
    N3      N    0.66224   0.33817   0.99992   1.000
    Zr4     Zr   0.99998   0.99997   0.49996   1.000
    Zr5     Zr   0.99999   0.49996   0.99997   1.000
    Zr6     Zr   0.49996   0.99996   0.99996   1.000
    O7      O    0.54827   0.10088   0.00153   1.000
    O8      O    0.89919   0.45184   0.99838   1.000
    O9      O    0.50757   0.00146   0.14133   1.000
    O10     O    0.49236   0.99848   0.85859   1.000
    O11     O    0.14135   0.00148   0.50755   1.000
    O12     O    0.85862   0.99847   0.49235   1.000
    O13     O    0.45148   0.89923   0.99840   1.000
    O14     O    0.10060   0.54825   0.00158   1.000
    O15     O    0.00155   0.14130   0.50773   1.000
    O16     O    0.99843   0.85863   0.49219   1.000
    O17     O    0.00151   0.50766   0.14130   1.000
    O18     O    0.99847   0.49226   0.85865   1.000
loop_
    _geom_bond_atom_site_label_1
    _geom_bond_atom_site_label_2
    _geom_bond_distance
    _geom_bond_site_symmetry_2
    _ccdc_geom_bond_type
    N3     O7        3.68656  1_556   S
    Zr6    O7        1.55651  1_566   S
    N3     O8        3.68662      .   S
    Zr5    O8        1.55646      .   S
    N2     O9        5.53045  1_565   S
    Zr6    O9        2.14030  1_566   S
    N2     O10       5.53072      .   S
    Zr6    O10       2.14036      .   S
    N2     O11       5.53235  1_565   S
    Zr4    O11       2.14096  1_665   S
    N2     O12       5.53254      .   S
    Zr4    O12       2.14097      .   S
    Zr6    O13       1.55481      .   S
    N1     O13       3.68153  1_554   S
    N1     O14       3.68156      .   S
    Zr5    O14       1.55475  1_656   S
    N0     O15       5.52066  1_655   S
    Zr4    O15       2.13581  1_665   S
    N0     O16       5.52083      .   S
    Zr4    O16       2.13590      .   S
    N0     O17       5.53095  1_655   S
    Zr5    O17       2.13995  1_656   S
    N0     O18       5.53111      .   S
    Zr5    O18       2.14001      .   S
