# CIF file generated by openbabel 2.4.90, see http://openbabel.sf.net
data_I
_chemical_name_common ''
_cell_length_a 15.339
_cell_length_b 15.305
_cell_length_c 15.334
_cell_angle_alpha 102.202
_cell_angle_beta 102.574
_cell_angle_gamma 102.334
_space_group_name_H-M_alt 'P 1'
_space_group_name_Hall 'P 1'
loop_
    _symmetry_equiv_pos_as_xyz
    x,y,z
loop_
    _atom_site_label
    _atom_site_type_symbol
    _atom_site_fract_x
    _atom_site_fract_y
    _atom_site_fract_z
    _atom_site_occupancy
    N0      N    1.00000   0.49996   0.49997   1.000
    N1      N    0.33702   0.66247   0.00005   1.000
    N2      N    0.49999   0.99999   0.49996   1.000
    N3      N    0.66224   0.33817   0.99992   1.000
    Zr4     Zr   0.25132   0.74823   0.50000   1.000
    Zr5     Zr   0.29688   0.70266   0.60000   1.000
    Zr6     Zr   0.47428   0.52531   0.60000   1.000
    Zr7     Zr   0.99998   0.99997   0.49996   1.000
    O8      O    0.86329   0.00322   0.47588   1.000
    O9      O    0.14603   0.00622   0.49108   1.000
    O10     O    0.00614   0.14613   0.49127   1.000
    O11     O    0.00301   0.86345   0.47572   1.000
    O12     O    0.85394   0.99372   0.50882   1.000
    O13     O    0.13668   0.99674   0.52403   1.000
    O14     O    0.99695   0.13648   0.52420   1.000
    O15     O    0.99384   0.85380   0.50866   1.000
    Zr16    Zr   0.99999   0.49996   0.99997   1.000
    O17     O    0.99381   0.50876   0.85385   1.000
    O18     O    0.89444   0.46834   0.99367   1.000
    O19     O    0.09585   0.56476   0.99689   1.000
    O20     O    0.99683   0.52415   0.13650   1.000
    O21     O    0.10535   0.53175   0.00627   1.000
    O22     O    0.00312   0.47576   0.86344   1.000
    O23     O    0.00618   0.49117   0.14610   1.000
    O24     O    0.90395   0.43534   0.00308   1.000
    Zr25    Zr   0.49996   0.99996   0.99996   1.000
    O26     O    0.47588   0.00317   0.86326   1.000
    O27     O    0.53180   0.10565   0.00611   1.000
    O28     O    0.49110   0.00615   0.14599   1.000
    O29     O    0.43501   0.90400   0.00298   1.000
    O30     O    0.50884   0.99379   0.85393   1.000
    O31     O    0.52405   0.99677   0.13666   1.000
    O32     O    0.56475   0.09610   0.99695   1.000
    O33     O    0.46796   0.89446   0.99382   1.000
loop_
    _geom_bond_atom_site_label_1
    _geom_bond_atom_site_label_2
    _geom_bond_distance
    _geom_bond_site_symmetry_2
    _ccdc_geom_bond_type
    Zr7    O8        2.06167  1_565   S
    N2     O8        5.65510  1_565   S
    Zr7    O9        2.25665  1_665   S
    N2     O9        5.42315  1_565   S
    Zr7    O10       2.25219  1_665   S
    N0     O10       5.41028  1_655   S
    Zr7    O11       2.05581  1_655   S
    N0     O11       5.64460  1_655   S
    Zr7    O12       2.25659      .   S
    N2     O12       5.42338      .   S
    Zr7    O13       2.06160  1_655   S
    N2     O13       5.65494      .   S
    Zr7    O14       2.05575  1_565   S
    N0     O14       5.64441      .   S
    Zr7    O15       2.25230      .   S
    N0     O15       5.41042      .   S
    Zr16   O17       2.25571      .   S
    N0     O17       5.42161      .   S
    Zr16   O18       1.56260      .   S
    N3     O18       3.72318      .   S
    Zr16   O19       1.60478  1_655   S
    N1     O19       3.66765  1_554   S
    Zr16   O20       2.06061  1_556   S
    N0     O20       5.65378      .   S
    Zr16   O21       1.56023  1_656   S
    N1     O21       3.71903      .   S
    Zr16   O22       2.06063  1_655   S
    N0     O22       5.65398  1_655   S
    Zr16   O23       2.25560  1_656   S
    N0     O23       5.42151  1_655   S
    Zr16   O24       1.60578  1_556   S
    N3     O24       3.67360  1_556   S
    Zr25   O26       2.06085  1_565   S
    N2     O26       5.65353  1_565   S
    Zr25   O27       1.56261  1_566   S
    N3     O27       3.72297  1_556   S
    Zr25   O28       2.25613  1_566   S
    N2     O28       5.42104  1_565   S
    Zr25   O29       1.60489  1_556   S
    N1     O29       3.66780      .   S
    Zr25   O30       2.25619      .   S
    N2     O30       5.42130      .   S
    Zr25   O31       2.06079  1_556   S
    N2     O31       5.65326      .   S
    Zr25   O32       1.60589  1_565   S
    N3     O32       3.67370      .   S
    Zr25   O33       1.56024      .   S
    N1     O33       3.71884  1_554   S
