# CIF file generated by openbabel 2.4.90, see http://openbabel.sf.net
data_I
_chemical_name_common ''
_cell_length_a 15.339
_cell_length_b 15.305
_cell_length_c 15.334
_cell_angle_alpha 102.202
_cell_angle_beta 102.574
_cell_angle_gamma 102.334
_space_group_name_H-M_alt 'P 1'
_space_group_name_Hall 'P 1'
loop_
    _symmetry_equiv_pos_as_xyz
    x,y,z
loop_
    _atom_site_label
    _atom_site_type_symbol
    _atom_site_fract_x
    _atom_site_fract_y
    _atom_site_fract_z
    _atom_site_occupancy
    Zr0     Zr   0.56808   0.98003   0.98050   1.000
    Zr1     Zr   0.98017   0.56814   0.97995   1.000
    Zr2     Zr   0.98049   0.97980   0.56802   1.000
    Zr3     Zr   0.01980   0.43177   0.02000   1.000
    Zr4     Zr   0.43184   0.01989   0.01942   1.000
    Zr5     Zr   0.01948   0.02014   0.43189   1.000
    Zr6     Zr   0.25132   0.74823   0.50000   1.000
    Zr7     Zr   0.29688   0.70266   0.60000   1.000
    Zr8     Zr   0.47428   0.52531   0.60000   1.000
    O9      O    0.49996   0.99996   0.99996   1.000
    O10     O    0.99999   0.49996   0.99997   1.000
    O11     O    0.99998   0.99997   0.49996   1.000
    N12     N    1.00000   0.49996   0.49997   1.000
    O13     O    0.98764   0.51756   0.70773   1.000
    O14     O    0.00626   0.45156   0.72691   1.000
    O15     O    0.01230   0.29230   0.48258   1.000
    O16     O    0.99392   0.27298   0.54844   1.000
    O17     O    0.01238   0.48238   0.29222   1.000
    O18     O    0.99368   0.54835   0.27303   1.000
    O19     O    0.98770   0.70763   0.51736   1.000
    O20     O    0.00604   0.72694   0.45149   1.000
    N21     N    0.33702   0.66247   0.00005   1.000
    O22     O    0.43596   0.78895   0.98769   1.000
    O23     O    0.37005   0.80804   0.00600   1.000
    O24     O    0.21071   0.56354   0.01256   1.000
    O25     O    0.19172   0.62956   0.99381   1.000
    N26     N    0.49999   0.99999   0.49996   1.000
    O27     O    0.70790   0.98747   0.51768   1.000
    O28     O    0.72660   0.00647   0.45181   1.000
    O29     O    0.48223   0.01235   0.29203   1.000
    O30     O    0.54814   0.99358   0.27337   1.000
    O31     O    0.29207   0.01248   0.48220   1.000
    O32     O    0.27338   0.99352   0.54810   1.000
    O33     O    0.51771   0.98762   0.70790   1.000
    O34     O    0.45180   0.00637   0.72655   1.000
    N35     N    0.66224   0.33817   0.99992   1.000
    O36     O    0.56363   0.21133   0.01225   1.000
    O37     O    0.62954   0.19225   0.99395   1.000
    O38     O    0.78890   0.43672   0.98736   1.000
    O39     O    0.80791   0.37072   0.00619   1.000
loop_
    _geom_bond_atom_site_label_1
    _geom_bond_atom_site_label_2
    _geom_bond_distance
    _geom_bond_site_symmetry_2
    _ccdc_geom_bond_type
    Zr0    O9        1.22767      .   S
    Zr4    O9        1.22767  1_544   S
    Zr1    O10       1.22719      .   S
    Zr3    O10       1.22719  1_454   S
    Zr2    O11       1.22745      .   S
    Zr5    O11       1.22745  1_445   S
    N12    O13       3.19056      .   S
    Zr1    O13       4.11300      .   S
    N12    O14       3.69360  1_655   S
    Zr3    O14       4.53079  1_554   S
    N12    O15       3.18248  1_655   S
    Zr5    O15       4.10267      .   S
    N12    O16       3.68949      .   S
    Zr2    O16       4.52433  1_565   S
    N12    O17       3.19058  1_655   S
    Zr3    O17       4.11280      .   S
    N12    O18       3.69343      .   S
    Zr1    O18       4.53072  1_556   S
    N12    O19       3.18251      .   S
    Zr2    O19       4.10283      .   S
    N12    O20       3.68958  1_655   S
    Zr5    O20       4.52453  1_545   S
    N21    O22       2.26090  1_554   S
    Zr0    O22       3.22077      .   S
    N21    O23       2.15413      .   S
    Zr4    O23       3.12642  1_545   S
    N21    O24       2.26158      .   S
    Zr3    O24       3.22096      .   S
    N21    O25       2.15353  1_554   S
    Zr1    O25       3.12587  1_655   S
    N26    O27       3.19183      .   S
    Zr2    O27       4.11528      .   S
    N26    O28       3.69303  1_565   S
    Zr5    O28       4.53239  1_455   S
    N26    O29       3.18985  1_565   S
    Zr4    O29       4.11336      .   S
    N26    O30       3.69217      .   S
    Zr0    O30       4.53163  1_556   S
    N26    O31       3.19160  1_565   S
    Zr5    O31       4.11522      .   S
    N26    O32       3.69290      .   S
    Zr2    O32       4.53234  1_655   S
    N26    O33       3.19006      .   S
    Zr0    O33       4.11344      .   S
    N26    O34       3.69239  1_565   S
    Zr4    O34       4.53178  1_554   S
    N35    O36       2.26215  1_556   S
    Zr4    O36       3.22270      .   S
    N35    O37       2.15934      .   S
    Zr0    O37       3.13122  1_565   S
    N35    O38       2.26282      .   S
    Zr1    O38       3.22283      .   S
    N35    O39       2.15883  1_556   S
    Zr3    O39       3.13072  1_455   S
