# CIF file generated by openbabel 2.4.90, see http://openbabel.sf.net
data_I
_chemical_name_common ''
_cell_length_a 14.239
_cell_length_b 12.96
_cell_length_c 12.96
_cell_angle_alpha 97.779
_cell_angle_beta 96.299
_cell_angle_gamma 83.691
_space_group_name_H-M_alt 'P 1'
_space_group_name_Hall 'P 1'
loop_
    _symmetry_equiv_pos_as_xyz
    x,y,z
loop_
    _atom_site_label
    _atom_site_type_symbol
    _atom_site_fract_x
    _atom_site_fract_y
    _atom_site_fract_z
    _atom_site_occupancy
    Cd0     Cd   0.95370   0.34287   0.06437   1.000
    Cd1     Cd   0.29627   0.06443   0.34290   1.000
    Cd2     Cd   0.79639   0.06438   0.34285   1.000
    Cd3     Cd   0.04632   0.65716   0.93564   1.000
    Cd4     Cd   0.54631   0.65712   0.93556   1.000
    Cd5     Cd   0.20363   0.93566   0.65716   1.000
    Cd6     Cd   0.70376   0.93561   0.65704   1.000
    H7      H    0.22646   0.41209   0.53515   1.000
    H8      H    0.72650   0.41208   0.53520   1.000
    H9      H    0.02361   0.53521   0.41207   1.000
    H10     H    0.52347   0.53522   0.41204   1.000
    H11     H    0.27352   0.58796   0.46481   1.000
    H12     H    0.77356   0.58795   0.46486   1.000
    H13     H    0.47655   0.46482   0.58797   1.000
    H14     H    0.97642   0.46482   0.58794   1.000
    C15     C    0.21974   0.52545   0.66635   1.000
    C16     C    0.71980   0.52545   0.66639   1.000
    C17     C    0.18970   0.34811   0.66556   1.000
    C18     C    0.68976   0.34811   0.66561   1.000
    C19     C    0.17090   0.46891   0.80880   1.000
    C20     C    0.67101   0.46890   0.80886   1.000
    C21     C    0.24777   0.69287   0.66018   1.000
    C22     C    0.74787   0.69285   0.66020   1.000
    C23     C    0.16624   0.17570   0.65260   1.000
    C24     C    0.66630   0.17568   0.65260   1.000
    C25     C    0.11852   0.43042   0.96284   1.000
    C26     C    0.61859   0.43048   0.96290   1.000
    C27     C    0.03024   0.66640   0.52546   1.000
    C28     C    0.53025   0.66641   0.52540   1.000
    C29     C    0.06034   0.66565   0.34813   1.000
    C30     C    0.56025   0.66560   0.34800   1.000
    C31     C    0.07900   0.80889   0.46895   1.000
    Cd32    Cd   0.45372   0.34292   0.06445   1.000
    C33     C    0.57912   0.80882   0.46883   1.000
    C34     C    0.50218   0.66025   0.69282   1.000
    C35     C    0.00000   0.66020   0.69286   1.000
    C36     C    0.08380   0.65271   0.17570   1.000
    C37     C    0.58371   0.65260   0.17562   1.000
    C38     C    0.13139   0.96296   0.43053   1.000
    C39     C    0.63153   0.96287   0.43036   1.000
    C40     C    0.28022   0.47459   0.33362   1.000
    C41     C    0.78029   0.47458   0.33366   1.000
    C42     C    0.31027   0.65192   0.33440   1.000
    C43     C    0.81032   0.65192   0.33445   1.000
    C44     C    0.32902   0.53113   0.19115   1.000
    C45     C    0.82912   0.53113   0.19121   1.000
    C46     C    0.25216   0.30718   0.33981   1.000
    C47     C    0.75226   0.30717   0.33983   1.000
    C48     C    0.33372   0.82436   0.34741   1.000
    C49     C    0.83378   0.82434   0.34741   1.000
    C50     C    0.38143   0.56955   0.03707   1.000
    C51     C    0.88150   0.56962   0.03717   1.000
    C52     C    0.46977   0.33363   0.47460   1.000
    C53     C    0.96979   0.33364   0.47455   1.000
    C54     C    0.43976   0.33444   0.65196   1.000
    C55     C    0.93969   0.33438   0.65188   1.000
    C56     C    0.42090   0.19122   0.53117   1.000
    C57     C    0.92103   0.19114   0.53106   1.000
    C58     C    0.99784   0.33984   0.30715   1.000
    C59     C    0.49785   0.33978   0.30719   1.000
    C60     C    0.41631   0.34744   0.82439   1.000
    C61     C    0.91623   0.34733   0.82431   1.000
    C62     C    0.36849   0.03716   0.56965   1.000
    C63     C    0.86863   0.03708   0.56948   1.000
    N64     N    0.21407   0.42653   0.61375   1.000
    N65     N    0.71412   0.42652   0.61380   1.000
    N66     N    0.16968   0.36855   0.76508   1.000
    N67     N    0.66978   0.36854   0.76514   1.000
    N68     N    0.19711   0.54844   0.76416   1.000
    N69     N    0.69717   0.54845   0.76420   1.000
    N70     N    0.24846   0.59771   0.61286   1.000
    N71     N    0.74852   0.59769   0.61289   1.000
    N72     N    0.24987   0.78098   0.69750   1.000
    N73     N    0.75000   0.78097   0.69750   1.000
    N74     N    0.18454   0.25398   0.60855   1.000
    N75     N    0.68453   0.25400   0.60857   1.000
    N76     N    0.14838   0.09924   0.68447   1.000
    N77     N    0.64850   0.09918   0.68440   1.000
    N78     N    0.14092   0.49829   0.90640   1.000
    N79     N    0.64104   0.49830   0.90647   1.000
    N80     N    0.09616   0.38140   0.02506   1.000
    N81     N    0.59618   0.38156   0.02521   1.000
    N82     N    0.03599   0.61381   0.42653   1.000
    N83     N    0.53586   0.61381   0.42646   1.000
    N84     N    0.08027   0.76519   0.36858   1.000
    N85     N    0.58031   0.76510   0.36847   1.000
    N86     N    0.05279   0.76423   0.54846   1.000
    N87     N    0.55294   0.76419   0.54839   1.000
    N88     N    0.50151   0.61293   0.59766   1.000
    N89     N    0.00000   0.61288   0.59700   1.000
    N90     N    0.50005   0.69756   0.78093   1.000
    N91     N    0.00000   0.69750   0.78098   1.000
    N92     N    0.06559   0.60865   0.25401   1.000
    N93     N    0.56544   0.60857   0.25392   1.000
    N94     N    0.10159   0.68458   0.09921   1.000
    N95     N    0.60155   0.68446   0.09914   1.000
    N96     N    0.10894   0.90651   0.49836   1.000
    N97     N    0.60913   0.90641   0.49820   1.000
    N98     N    0.15380   0.02518   0.38157   1.000
    N99     N    0.65391   0.02513   0.38142   1.000
    N100    N    0.28591   0.57351   0.38621   1.000
    N101    N    0.78596   0.57351   0.38626   1.000
    N102    N    0.33024   0.63150   0.23480   1.000
    N103    N    0.83035   0.63149   0.23493   1.000
    N104    N    0.30285   0.45159   0.23581   1.000
    N105    N    0.80292   0.45159   0.23585   1.000
    N106    N    0.25150   0.40234   0.38712   1.000
    N107    N    0.75157   0.40233   0.38715   1.000
    N108    N    0.25003   0.21907   0.30251   1.000
    N109    N    0.75015   0.21905   0.30251   1.000
    N110    N    0.31549   0.74604   0.39140   1.000
    N111    N    0.81549   0.74606   0.39146   1.000
    N112    N    0.35153   0.90085   0.31556   1.000
    N113    N    0.85164   0.90080   0.31554   1.000
    N114    N    0.35899   0.50173   0.09354   1.000
    N115    N    0.85911   0.50174   0.09361   1.000
    N116    N    0.40384   0.61847   0.97480   1.000
    N117    N    0.90387   0.61863   0.97495   1.000
    N118    N    0.46416   0.38622   0.57354   1.000
    N119    N    0.96403   0.38623   0.57340   1.000
    N120    N    0.41973   0.23494   0.63154   1.000
    N121    N    0.91975   0.23484   0.63143   1.000
    N122    N    0.44709   0.23584   0.45162   1.000
    N123    N    0.94723   0.23581   0.45150   1.000
    N124    N    0.99848   0.38716   0.40231   1.000
    N125    N    0.49852   0.38710   0.40235   1.000
    N126    N    0.99997   0.30254   0.21903   1.000
    N127    N    0.49998   0.30248   0.21908   1.000
    N128    N    0.43459   0.39147   0.74609   1.000
    N129    N    0.93443   0.39139   0.74600   1.000
    N130    N    0.39848   0.31557   0.90080   1.000
    N131    N    0.89843   0.31545   0.90080   1.000
    N132    N    0.39090   0.09363   0.50180   1.000
    N133    N    0.89109   0.09353   0.50165   1.000
    N134    N    0.34612   0.97491   0.61859   1.000
    N135    N    0.84622   0.97485   0.61840   1.000
loop_
    _geom_bond_atom_site_label_1
    _geom_bond_atom_site_label_2
    _geom_bond_distance
    _geom_bond_site_symmetry_2
    _ccdc_geom_bond_type
    N80    Cd0       2.26749  1_455   S
    N80    C25       1.18096  1_554   S
    N81    Cd32      2.26783      .   S
    N81    C26       1.18132  1_554   S
    C50    N114      1.30285      .   S
    C50    N116      1.18092  1_554   S
    C51    N115      1.30287      .   S
    C51    N117      1.18096  1_554   S
    Cd0    N115      2.34276      .   S
    Cd0    N126      2.15478      .   S
    Cd0    N131      2.17507  1_554   S
    Cd32   N114      2.34295      .   S
    Cd32   N127      2.15486      .   S
    Cd32   N130      2.17584  1_554   S
    N114   C44       1.37105      .   S
    N115   C45       1.37102      .   S
    N95    C37       1.18598      .   S
    N95    Cd4       2.17501  1_554   S
    N94    C36       1.18597      .   S
    N94    Cd3       2.17507  1_554   S
    C37    N93       1.29247      .   S
    C36    N92       1.29246      .   S
    C44    N102      1.34751      .   S
    C44    N104      1.35273      .   S
    C45    N103      1.34773      .   S
    C45    N105      1.35270      .   S
    N126   C58       1.18060      .   S
    N127   C59       1.18049      .   S
    N102   C42       1.33740      .   S
    N103   C43       1.33663      .   S
    N104   C40       1.32879      .   S
    N105   C41       1.32879      .   S
    N93    C30       1.34245      .   S
    N92    C29       1.34284      .   S
    N108   C46       1.18054      .   S
    N108   Cd1       2.15457      .   S
    N109   C47       1.18055      .   S
    N109   Cd2       2.15480      .   S
    C58    N124      1.30043      .   S
    C59    N125      1.30041      .   S
    N113   Cd2       2.17488  1_565   S
    N113   C49       1.18595      .   S
    N112   Cd1       2.17487  1_565   S
    N112   C48       1.18597      .   S
    C40    N100      1.37439      .   S
    C40    N106      1.35896      .   S
    C41    N101      1.37444      .   S
    C41    N107      1.35898      .   S
    C42    N100      1.38459      .   S
    C42    N110      1.34270      .   S
    C43    N101      1.38466      .   S
    C43    N111      1.34294      .   S
    C46    N106      1.30043      .   S
    C47    N107      1.30044      .   S
    Cd2    N99       2.26788      .   S
    Cd2    N133      2.34281      .   S
    Cd1    N98       2.26803      .   S
    Cd1    N132      2.34348      .   S
    C48    N110      1.29217      .   S
    C49    N111      1.29250      .   S
    C30    N85       1.33659      .   S
    C30    N83       1.38509      .   S
    C29    N84       1.33656      .   S
    C29    N82       1.38468      .   S
    N85    C33       1.34771      .   S
    N84    C31       1.34781      .   S
    N99    C39       1.18073  1_545   S
    N98    C38       1.18081  1_545   S
    N100   H11       1.04133      .   S
    N101   H12       1.04136      .   S
    N124   C53       1.35890      .   S
    N125   C52       1.35896      .   S
    H10    N83       1.04130      .   S
    H9     N82       1.04132      .   S
    N83    C28       1.37447      .   S
    N82    C27       1.37452      .   S
    C39    N97       1.30281      .   S
    C38    N96       1.30283      .   S
    N123   C53       1.32884      .   S
    N123   C57       1.35309      .   S
    N122   C52       1.32881      .   S
    N122   C56       1.35261      .   S
    C33    N97       1.37108      .   S
    C33    N87       1.35267      .   S
    C31    N96       1.37107      .   S
    C31    N86       1.35257      .   S
    C53    N119      1.37363      .   S
    C52    N118      1.37444      .   S
    N97    Cd6       2.34287      .   S
    N96    Cd5       2.34281      .   S
    N133   C57       1.37106      .   S
    N133   C63       1.30284      .   S
    N132   C56       1.37108      .   S
    N132   C62       1.30291      .   S
    C28    N87       1.32881      .   S
    C28    N88       1.35902      .   S
    C27    N86       1.32881      .   S
    C27    N89       1.36139      .   S
    C57    N121      1.34783      .   S
    C56    N120      1.34779      .   S
    H7     N64       1.04136      .   S
    H8     N65       1.04133      .   S
    C63    N135      1.18046  1_545   S
    C62    N134      1.18072  1_545   S
    N119   H14       1.04134      .   S
    N119   C55       1.38554      .   S
    N118   H13       1.04131      .   S
    N118   C54       1.38468      .   S
    N89    C35       1.30891      .   S
    N88    C34       1.30041      .   S
    N74    C23       1.29250      .   S
    N74    C17       1.34293      .   S
    N75    C24       1.29246      .   S
    N75    C18       1.34291      .   S
    N70    C21       1.30044      .   S
    N70    C15       1.35897      .   S
    N71    C22       1.30044      .   S
    N71    C16       1.35894      .   S
    N64    C17       1.38467      .   S
    N64    C15       1.37443      .   S
    N65    C18       1.38457      .   S
    N65    C16       1.37439      .   S
    N135   Cd6       2.26788      .   S
    N134   Cd5       2.26789      .   S
    N121   C55       1.33657      .   S
    N120   C54       1.33656      .   S
    C55    N129      1.34286      .   S
    C54    N128      1.34296      .   S
    C23    N76       1.18595      .   S
    C24    N77       1.18566      .   S
    Cd6    N77       2.17488  1_565   S
    Cd6    N73       2.15487      .   S
    Cd5    N76       2.17487  1_565   S
    Cd5    N72       2.15482      .   S
    C21    N72       1.18055      .   S
    C22    N73       1.18054      .   S
    C17    N66       1.33664      .   S
    C18    N67       1.33656      .   S
    C15    N68       1.32881      .   S
    C16    N69       1.32883      .   S
    C34    N90       1.18049      .   S
    C35    N91       1.17835      .   S
    N129   C61       1.29246      .   S
    N128   C60       1.29246      .   S
    N68    C19       1.35270      .   S
    N69    C20       1.35272      .   S
    N66    C19       1.34772      .   S
    N67    C20       1.34776      .   S
    N90    Cd4       2.15485      .   S
    N91    Cd3       2.15492      .   S
    C19    N78       1.37102      .   S
    C20    N79       1.37107      .   S
    C61    N131      1.18597      .   S
    C60    N130      1.18516      .   S
    N78    Cd3       2.34276      .   S
    N78    C25       1.30289      .   S
    N79    Cd4       2.34295      .   S
    N79    C26       1.30251      .   S
    Cd4    N116      2.26783      .   S
    Cd3    N117      2.26749  1_455   S
