# CIF file generated by openbabel 2.4.90, see http://openbabel.sf.net
data_I
_chemical_name_common ''
_cell_length_a 14.239
_cell_length_b 12.96
_cell_length_c 12.96
_cell_angle_alpha 97.779
_cell_angle_beta 96.299
_cell_angle_gamma 83.691
_space_group_name_H-M_alt 'P 1'
_space_group_name_Hall 'P 1'
loop_
    _symmetry_equiv_pos_as_xyz
    x,y,z
loop_
    _atom_site_label
    _atom_site_type_symbol
    _atom_site_fract_x
    _atom_site_fract_y
    _atom_site_fract_z
    _atom_site_occupancy
    Cd0     Cd   0.95370   0.34287   0.06437   1.000
    Cd1     Cd   0.29627   0.06443   0.34290   1.000
    Cd2     Cd   0.79639   0.06438   0.34285   1.000
    Cd3     Cd   0.04632   0.65716   0.93564   1.000
    Cd4     Cd   0.54631   0.65712   0.93556   1.000
    Cd5     Cd   0.20363   0.93566   0.65716   1.000
    Cd6     Cd   0.70376   0.93561   0.65704   1.000
    Cd7     Cd   0.45372   0.34292   0.06445   1.000
