# CIF file generated by openbabel 2.4.90, see http://openbabel.sf.net
data_I
_chemical_name_common ''
_cell_length_a 14.239
_cell_length_b 12.96
_cell_length_c 12.96
_cell_angle_alpha 97.779
_cell_angle_beta 96.299
_cell_angle_gamma 83.691
_space_group_name_H-M_alt 'P 1'
_space_group_name_Hall 'P 1'
loop_
    _symmetry_equiv_pos_as_xyz
    x,y,z
loop_
    _atom_site_label
    _atom_site_type_symbol
    _atom_site_fract_x
    _atom_site_fract_y
    _atom_site_fract_z
    _atom_site_occupancy
    N0      N    0.43682   0.27317   0.56202   1.000
    N1      N    0.93683   0.27313   0.56193   1.000
    N2      N    0.18678   0.43804   0.72683   1.000
    N3      N    0.68686   0.43805   0.72687   1.000
    N4      N    0.06296   0.72691   0.43802   1.000
    N5      N    0.56320   0.72687   0.43798   1.000
    N6      N    0.81324   0.56199   0.27318   1.000
    N7      N    0.31317   0.56199   0.27313   1.000
    Zr8     Zr   0.45372   0.34292   0.06445   1.000
    O9      O    0.52981   0.37153   0.97515   1.000
    O10     O    0.40674   0.41754   0.12026   1.000
    O11     O    0.45528   0.32043   0.20817   1.000
    O12     O    0.44259   0.32206   0.91839   1.000
    Zr13    Zr   0.95370   0.34287   0.06437   1.000
    O14     O    0.90676   0.41751   0.12023   1.000
    O15     O    0.94258   0.32201   0.91831   1.000
    O16     O    0.95527   0.32039   0.20809   1.000
    O17     O    0.02978   0.37148   0.97507   1.000
    Zr18    Zr   0.29627   0.06443   0.34290   1.000
    O19     O    0.29471   0.20815   0.32041   1.000
    O20     O    0.30740   0.91837   0.32204   1.000
    O21     O    0.22013   0.97514   0.37151   1.000
    O22     O    0.34324   0.12026   0.41754   1.000
    Zr23    Zr   0.79639   0.06438   0.34285   1.000
    O24     O    0.80751   0.91834   0.32202   1.000
    O25     O    0.79483   0.20812   0.32039   1.000
    O26     O    0.84334   0.12021   0.41747   1.000
    O27     O    0.72028   0.97510   0.37145   1.000
    Zr28    Zr   0.04632   0.65716   0.93564   1.000
    O29     O    0.97024   0.62855   0.02494   1.000
    O30     O    0.05739   0.67803   0.08168   1.000
    O31     O    0.04469   0.67964   0.79190   1.000
    O32     O    0.09326   0.58252   0.87978   1.000
    Zr33    Zr   0.54631   0.65712   0.93556   1.000
    O34     O    0.54475   0.67961   0.79184   1.000
    O35     O    0.55743   0.67797   0.08161   1.000
    O36     O    0.47021   0.62850   0.02486   1.000
    O37     O    0.59328   0.58250   0.87975   1.000
    Zr38    Zr   0.20363   0.93566   0.65716   1.000
    O39     O    0.20520   0.79192   0.67962   1.000
    O40     O    0.15663   0.87982   0.58253   1.000
    O41     O    0.19251   0.08170   0.67799   1.000
    O42     O    0.27974   0.02494   0.62855   1.000
    Zr43    Zr   0.70376   0.93561   0.65704   1.000
    O44     O    0.65679   0.87977   0.58242   1.000
    O45     O    0.69262   0.08166   0.67792   1.000
    O46     O    0.77983   0.02489   0.62843   1.000
    O47     O    0.70531   0.79189   0.67956   1.000
loop_
    _geom_bond_atom_site_label_1
    _geom_bond_atom_site_label_2
    _geom_bond_distance
    _geom_bond_site_symmetry_2
    _ccdc_geom_bond_type
    Zr8    O9        1.76931  1_554   S
    N3     O9        4.34172      .   S
    Zr8    O10       1.29630      .   S
    N7     O10       2.86914      .   S
    Zr8    O11       1.92129      .   S
    N0     O11       4.74707      .   S
    Zr8    O12       1.86725  1_554   S
    N0     O12       4.56889      .   S
    Zr13   O14       1.29653      .   S
    N6     O14       2.86971      .   S
    Zr13   O15       1.86716  1_554   S
    N1     O15       4.56914      .   S
    Zr13   O16       1.92124      .   S
    N1     O16       4.74692      .   S
    Zr13   O17       1.76912  1_654   S
    N2     O17       4.34114      .   S
    Zr18   O19       1.92125      .   S
    N7     O19       4.74705      .   S
    Zr18   O20       1.86715  1_545   S
    N7     O20       4.56912      .   S
    Zr18   O21       1.76972  1_545   S
    N4     O21       4.34257      .   S
    Zr18   O22       1.29675      .   S
    N0     O22       2.87002      .   S
    Zr23   O24       1.86698  1_545   S
    N6     O24       4.56862      .   S
    Zr23   O25       1.92135      .   S
    N6     O25       4.74718      .   S
    Zr23   O26       1.29639      .   S
    N1     O26       2.86936      .   S
    Zr23   O27       1.76938  1_545   S
    N5     O27       4.34178      .   S
    Zr28   O29       1.76912  1_456   S
    N6     O29       4.34113      .   S
    Zr28   O30       1.86700  1_556   S
    N4     O30       4.56881      .   S
    Zr28   O31       1.92131      .   S
    N4     O31       4.74701      .   S
    Zr28   O32       1.29653      .   S
    N2     O32       2.86971      .   S
    Zr33   O34       1.92132      .   S
    N5     O34       4.74717      .   S
    Zr33   O35       1.86711  1_556   S
    N5     O35       4.56891      .   S
    Zr33   O36       1.76928  1_556   S
    N7     O36       4.34162      .   S
    Zr33   O37       1.29633      .   S
    N3     O37       2.86923      .   S
    Zr38   O39       1.92136      .   S
    N2     O39       4.74719      .   S
    Zr38   O40       1.29691      .   S
    N4     O40       2.87082      .   S
    Zr38   O41       1.86697  1_565   S
    N2     O41       4.56861      .   S
    Zr38   O42       1.76939  1_565   S
    N0     O42       4.34180      .   S
    Zr43   O44       1.29658      .   S
    N5     O44       2.86978      .   S
    Zr43   O45       1.86715  1_565   S
    N3     O45       4.56912      .   S
    Zr43   O46       1.76908  1_565   S
    N1     O46       4.34097      .   S
    Zr43   O47       1.92134      .   S
    N3     O47       4.74717      .   S
