# CIF file generated by openbabel 2.4.90, see http://openbabel.sf.net
data_I
_chemical_name_common ''
_cell_length_a 14.239
_cell_length_b 12.96
_cell_length_c 12.96
_cell_angle_alpha 97.779
_cell_angle_beta 96.299
_cell_angle_gamma 83.691
_space_group_name_H-M_alt 'P 1'
_space_group_name_Hall 'P 1'
loop_
    _symmetry_equiv_pos_as_xyz
    x,y,z
loop_
    _atom_site_label
    _atom_site_type_symbol
    _atom_site_fract_x
    _atom_site_fract_y
    _atom_site_fract_z
    _atom_site_occupancy
    Zr0     Zr   0.45372   0.34292   0.06445   1.000
    Zr1     Zr   0.95370   0.34287   0.06437   1.000
    Zr2     Zr   0.29627   0.06443   0.34290   1.000
    Zr3     Zr   0.79639   0.06438   0.34285   1.000
    Zr4     Zr   0.04632   0.65716   0.93564   1.000
    Zr5     Zr   0.54631   0.65712   0.93556   1.000
    Zr6     Zr   0.20363   0.93566   0.65716   1.000
    Zr7     Zr   0.70376   0.93561   0.65704   1.000
    N8      N    0.43682   0.27317   0.56202   1.000
    O9      O    0.45684   0.29793   0.35189   1.000
    O10     O    0.43146   0.30121   0.77232   1.000
    O11     O    0.39020   0.17610   0.49219   1.000
    O12     O    0.35585   0.11422   0.59995   1.000
    N13     N    0.93683   0.27313   0.56193   1.000
    O14     O    0.95683   0.29792   0.35182   1.000
    O15     O    0.93145   0.30114   0.77226   1.000
    O16     O    0.89028   0.17604   0.49209   1.000
    O17     O    0.85591   0.11418   0.59983   1.000
    N18     N    0.18678   0.43804   0.72683   1.000
    O19     O    0.20677   0.64818   0.70208   1.000
    O20     O    0.18139   0.22774   0.69882   1.000
    O21     O    0.14020   0.50788   0.82393   1.000
    O22     O    0.10586   0.40009   0.88577   1.000
    N23     N    0.68686   0.43805   0.72687   1.000
    O24     O    0.70687   0.64817   0.70207   1.000
    O25     O    0.68149   0.22772   0.69880   1.000
    O26     O    0.64026   0.50788   0.82394   1.000
    O27     O    0.60590   0.40014   0.88585   1.000
    N28     N    0.06296   0.72691   0.43802   1.000
    O29     O    0.04306   0.70212   0.64817   1.000
    O30     O    0.06846   0.69889   0.22772   1.000
    O31     O    0.10962   0.82399   0.50789   1.000
    O32     O    0.14400   0.88586   0.40013   1.000
    N33     N    0.56320   0.72687   0.43798   1.000
    O34     O    0.54319   0.70210   0.64811   1.000
    O35     O    0.56856   0.69883   0.22766   1.000
    O36     O    0.60982   0.82394   0.50780   1.000
    O37     O    0.64417   0.88581   0.40006   1.000
    N38     N    0.81324   0.56199   0.27318   1.000
    O39     O    0.79326   0.35186   0.29793   1.000
    O40     O    0.81863   0.77229   0.30119   1.000
    O41     O    0.85982   0.49215   0.17608   1.000
    O42     O    0.89417   0.59995   0.11424   1.000
    N43     N    0.31317   0.56199   0.27313   1.000
    O44     O    0.29316   0.35187   0.29792   1.000
    O45     O    0.31853   0.77231   0.30118   1.000
    O46     O    0.35976   0.49216   0.17606   1.000
    O47     O    0.39412   0.59989   0.11415   1.000
loop_
    _geom_bond_atom_site_label_1
    _geom_bond_atom_site_label_2
    _geom_bond_distance
    _geom_bond_site_symmetry_2
    _ccdc_geom_bond_type
    N8     O9        2.83326      .   S
    Zr0    O9        3.84259      .   S
    N8     O10       2.70883      .   S
    Zr0    O10       3.73451  1_554   S
    N8     O11       1.60807      .   S
    Zr2    O11       2.59350      .   S
    N8     O12       2.59511      .   S
    Zr6    O12       3.53878  1_565   S
    N13    O14       2.83315      .   S
    Zr1    O14       3.84248      .   S
    N13    O15       2.70919      .   S
    Zr1    O15       3.73432  1_554   S
    N13    O16       1.60778      .   S
    Zr3    O16       2.59278      .   S
    N13    O17       2.59460      .   S
    Zr7    O17       3.53816  1_565   S
    N18    O19       2.83330      .   S
    Zr6    O19       3.84272      .   S
    N18    O20       2.70884      .   S
    Zr6    O20       3.73394  1_565   S
    N18    O21       1.60796      .   S
    Zr4    O21       2.59307      .   S
    N18    O22       2.59471      .   S
    Zr1    O22       3.53824  1_654   S
    N23    O24       2.83331      .   S
    Zr7    O24       3.84268      .   S
    N23    O25       2.70917      .   S
    Zr7    O25       3.73430  1_565   S
    N23    O26       1.60774      .   S
    Zr5    O26       2.59265      .   S
    N23    O27       2.59513      .   S
    Zr0    O27       3.53862  1_554   S
    N28    O29       2.83317      .   S
    Zr4    O29       3.84262      .   S
    N28    O30       2.70905      .   S
    Zr4    O30       3.73399  1_556   S
    N28    O31       1.60867      .   S
    Zr6    O31       2.59383      .   S
    N28    O32       2.59554      .   S
    Zr2    O32       3.53944  1_545   S
    N33    O34       2.83332      .   S
    Zr5    O34       3.84265      .   S
    N33    O35       2.70899      .   S
    Zr5    O35       3.73422  1_556   S
    N33    O36       1.60799      .   S
    Zr7    O36       2.59315      .   S
    N33    O37       2.59510      .   S
    Zr3    O37       3.53876  1_545   S
    N38    O39       2.83330      .   S
    Zr3    O39       3.84271      .   S
    N38    O40       2.70885      .   S
    Zr3    O40       3.73395  1_545   S
    N38    O41       1.60796      .   S
    Zr1    O41       2.59307      .   S
    N38    O42       2.59471      .   S
    Zr4    O42       3.53824  1_456   S
    N43    O44       2.83327      .   S
    Zr2    O44       3.84251      .   S
    N43    O45       2.70917      .   S
    Zr2    O45       3.73430  1_545   S
    N43    O46       1.60768      .   S
    Zr0    O46       2.59261      .   S
    N43    O47       2.59506      .   S
    Zr5    O47       3.53856  1_556   S
