# CIF file generated by openbabel 2.4.90, see http://openbabel.sf.net
data_I
_chemical_name_common ''
_cell_length_a 15.131
_cell_length_b 14.406
_cell_length_c 21.129
_cell_angle_alpha 90.026
_cell_angle_beta 90.03
_cell_angle_gamma 92.656
_space_group_name_H-M_alt 'P 1'
_space_group_name_Hall 'P 1'
loop_
    _symmetry_equiv_pos_as_xyz
    x,y,z
loop_
    _atom_site_label
    _atom_site_type_symbol
    _atom_site_fract_x
    _atom_site_fract_y
    _atom_site_fract_z
    _atom_site_occupancy
    Zr0     Zr   0.24443   0.39661   0.56570   1.000
    Zr1     Zr   0.74444   0.39660   0.56572   1.000
    Zr2     Zr   0.25577   0.10342   0.06569   1.000
    Zr3     Zr   0.75578   0.10342   0.06569   1.000
    Zr4     Zr   0.25557   0.60337   0.43426   1.000
    Zr5     Zr   0.75558   0.60337   0.43420   1.000
    Zr6     Zr   0.24423   0.89655   0.93430   1.000
    Zr7     Zr   0.74424   0.89655   0.93430   1.000
    N8      N    0.75262   0.73693   0.19134   1.000
    O9      O    0.74753   0.79085   0.08402   1.000
    O10     O    0.75309   0.87848   0.12677   1.000
    N11     N    0.49483   0.90415   0.93692   1.000
    O12     O    0.58012   0.90257   0.93638   1.000
    O13     O    0.40926   0.90222   0.93645   1.000
    N14     N    0.49505   0.40427   0.56308   1.000
    O15     O    0.58033   0.40268   0.56367   1.000
    O16     O    0.40947   0.40230   0.56350   1.000
    N17     N    0.00518   0.09582   0.06307   1.000
    O18     O    0.09075   0.09776   0.06354   1.000
    O19     O    0.91990   0.09740   0.06361   1.000
    N20     N    0.50518   0.09584   0.06307   1.000
    O21     O    0.41989   0.09742   0.06360   1.000
    O22     O    0.59075   0.09777   0.06353   1.000
    N23     N    0.24739   0.26304   0.80860   1.000
    O24     O    0.25247   0.20912   0.91595   1.000
    O25     O    0.24691   0.12149   0.87320   1.000
    N26     N    0.00497   0.59570   0.43691   1.000
    O27     O    0.91969   0.59729   0.43630   1.000
    O28     O    0.09054   0.59768   0.43648   1.000
    N29     N    0.74740   0.26304   0.80858   1.000
    O30     O    0.74693   0.12149   0.87319   1.000
    O31     O    0.75248   0.20913   0.91594   1.000
    N32     N    0.25261   0.73694   0.19135   1.000
    O33     O    0.25309   0.87849   0.12677   1.000
    O34     O    0.24753   0.79085   0.08402   1.000
    N35     N    0.75262   0.23729   0.30856   1.000
    O36     O    0.75222   0.37869   0.37317   1.000
    O37     O    0.74766   0.29106   0.41593   1.000
    N38     N    0.24739   0.76268   0.69141   1.000
    O39     O    0.25235   0.70891   0.58405   1.000
    O40     O    0.24779   0.62128   0.62679   1.000
    N41     N    0.25261   0.23731   0.30857   1.000
    O42     O    0.24765   0.29107   0.41591   1.000
    O43     O    0.25221   0.37871   0.37319   1.000
    N44     N    0.50497   0.59571   0.43691   1.000
    O45     O    0.59054   0.59768   0.43647   1.000
    O46     O    0.41968   0.59729   0.43632   1.000
    N47     N    0.74740   0.76267   0.69141   1.000
    O48     O    0.74780   0.62127   0.62679   1.000
    O49     O    0.75236   0.70891   0.58403   1.000
    N50     N    0.99505   0.40427   0.56308   1.000
    O51     O    0.90948   0.40230   0.56351   1.000
    O52     O    0.08033   0.40269   0.56366   1.000
    N53     N    0.99483   0.90414   0.93692   1.000
    O54     O    0.08011   0.90256   0.93639   1.000
    O55     O    0.90926   0.90221   0.93646   1.000
    O56     O    0.74546   0.81453   0.79003   1.000
    O57     O    0.25455   0.18545   0.20995   1.000
    O58     O    0.74557   0.31476   0.70994   1.000
    O59     O    0.75445   0.68521   0.28987   1.000
    O60     O    0.75456   0.18543   0.20995   1.000
    O61     O    0.25445   0.68521   0.28990   1.000
    O62     O    0.24556   0.31476   0.70997   1.000
    O63     O    0.24545   0.81454   0.79003   1.000
loop_
    _geom_bond_atom_site_label_1
    _geom_bond_atom_site_label_2
    _geom_bond_distance
    _geom_bond_site_symmetry_2
    _ccdc_geom_bond_type
    N8     O9        2.39968      .   S
    Zr7    O9        3.51285  1_556   S
    N8     O10       2.45382      .   S
    Zr3    O10       3.48697  1_545   S
    N11    O12       1.29177      .   S
    Zr7    O12       2.48929      .   S
    N11    O13       1.29387      .   S
    Zr6    O13       2.49494      .   S
    N14    O15       1.29175      .   S
    Zr1    O15       2.48908      .   S
    N14    O16       1.29386      .   S
    Zr0    O16       2.49521      .   S
    N17    O18       1.29380      .   S
    Zr2    O18       2.49487      .   S
    N17    O19       1.29171  1_455   S
    Zr3    O19       2.48922      .   S
    N20    O21       1.29178      .   S
    Zr2    O21       2.48930      .   S
    N20    O22       1.29386      .   S
    Zr3    O22       2.49491      .   S
    N23    O24       2.40016      .   S
    Zr2    O24       3.51328  1_554   S
    N23    O25       2.45409      .   S
    Zr6    O25       3.48713  1_565   S
    N26    O27       1.29169  1_455   S
    Zr5    O27       2.48903      .   S
    N26    O28       1.29380      .   S
    Zr4    O28       2.49517      .   S
    N29    O30       2.45418      .   S
    Zr7    O30       3.48721  1_565   S
    N29    O31       2.40029      .   S
    Zr3    O31       3.51343  1_554   S
    N32    O33       2.45381      .   S
    Zr2    O33       3.48695  1_545   S
    N32    O34       2.39967      .   S
    Zr6    O34       3.51282  1_556   S
    N35    O36       2.45192      .   S
    Zr5    O36       3.48173      .   S
    N35    O37       2.39923      .   S
    Zr1    O37       3.51190      .   S
    N38    O39       2.39907      .   S
    Zr4    O39       3.51182      .   S
    N38    O40       2.45204      .   S
    Zr0    O40       3.48212      .   S
    N41    O42       2.39863      .   S
    Zr0    O42       3.51186      .   S
    N41    O43       2.45199      .   S
    Zr4    O43       3.48194      .   S
    N44    O45       1.29387      .   S
    Zr5    O45       2.49524      .   S
    N44    O46       1.29176      .   S
    Zr4    O46       2.48910      .   S
    N47    O48       2.45198      .   S
    Zr1    O48       3.48201      .   S
    N47    O49       2.39937      .   S
    Zr5    O49       3.51269      .   S
    N50    O51       1.29381      .   S
    Zr1    O51       2.49517      .   S
    N50    O52       1.29169  1_655   S
    Zr0    O52       2.48902      .   S
    N53    O54       1.29172  1_655   S
    Zr6    O54       2.48924      .   S
    N53    O55       1.29379      .   S
    Zr7    O55       2.49484      .   S
    Zr7    O56       3.26916      .   S
    N47    O56       2.21395      .   S
    Zr2    O57       3.26906      .   S
    N41    O57       2.21384      .   S
    Zr1    O58       3.26810      .   S
    N29    O58       2.21441      .   S
    Zr5    O59       3.27029      .   S
    N8     O59       2.21204      .   S
    Zr3    O60       3.26894      .   S
    N35    O60       2.21374      .   S
    Zr4    O61       3.27102      .   S
    N32    O61       2.21248      .   S
    Zr0    O62       3.26925      .   S
    N23    O62       2.21392      .   S
    Zr6    O63       3.26914      .   S
    N38    O63       2.21393      .   S
