# CIF file generated by openbabel 2.4.90, see http://openbabel.sf.net
data_I
_chemical_name_common ''
_cell_length_a 15.131
_cell_length_b 14.406
_cell_length_c 21.129
_cell_angle_alpha 90.026
_cell_angle_beta 90.03
_cell_angle_gamma 92.656
_space_group_name_H-M_alt 'P 1'
_space_group_name_Hall 'P 1'
loop_
    _symmetry_equiv_pos_as_xyz
    x,y,z
loop_
    _atom_site_label
    _atom_site_type_symbol
    _atom_site_fract_x
    _atom_site_fract_y
    _atom_site_fract_z
    _atom_site_occupancy
    Zr0     Zr   0.24443   0.39661   0.56570   1.000
    Zr1     Zr   0.74444   0.39660   0.56572   1.000
    Zr2     Zr   0.25577   0.10342   0.06569   1.000
    Zr3     Zr   0.75578   0.10342   0.06569   1.000
    Zr4     Zr   0.25557   0.60337   0.43426   1.000
    Zr5     Zr   0.75558   0.60337   0.43420   1.000
    Zr6     Zr   0.24423   0.89655   0.93430   1.000
    Zr7     Zr   0.74424   0.89655   0.93430   1.000
    N8      N    0.75262   0.73693   0.19134   1.000
    O9      O    0.74753   0.79085   0.08402   1.000
    O10     O    0.75786   0.70291   0.29497   1.000
    O11     O    0.75105   0.66751   0.28477   1.000
    O12     O    0.75309   0.87848   0.12677   1.000
    N13     N    0.49483   0.90415   0.93692   1.000
    O14     O    0.58012   0.90257   0.93638   1.000
    O15     O    0.40926   0.90222   0.93645   1.000
    N16     N    0.49505   0.40427   0.56308   1.000
    O17     O    0.58033   0.40268   0.56367   1.000
    O18     O    0.40947   0.40230   0.56350   1.000
    N19     N    0.00518   0.09582   0.06307   1.000
    O20     O    0.09075   0.09776   0.06354   1.000
    O21     O    0.91990   0.09740   0.06361   1.000
    N22     N    0.50518   0.09584   0.06307   1.000
    O23     O    0.41989   0.09742   0.06360   1.000
    O24     O    0.59075   0.09777   0.06353   1.000
    N25     N    0.24739   0.26304   0.80860   1.000
    O26     O    0.24896   0.33246   0.71515   1.000
    O27     O    0.25247   0.20912   0.91595   1.000
    O28     O    0.24215   0.29706   0.70480   1.000
    O29     O    0.24691   0.12149   0.87320   1.000
    N30     N    0.00497   0.59570   0.43691   1.000
    O31     O    0.91969   0.59729   0.43630   1.000
    O32     O    0.09054   0.59768   0.43648   1.000
    N33     N    0.74740   0.26304   0.80858   1.000
    O34     O    0.74693   0.12149   0.87319   1.000
    O35     O    0.74897   0.33246   0.71515   1.000
    O36     O    0.75248   0.20913   0.91594   1.000
    O37     O    0.74216   0.29707   0.70472   1.000
    N38     N    0.25261   0.73694   0.19135   1.000
    O39     O    0.25309   0.87849   0.12677   1.000
    O40     O    0.24753   0.79085   0.08402   1.000
    O41     O    0.25104   0.66752   0.28480   1.000
    O42     O    0.25785   0.70291   0.29499   1.000
    N43     N    0.75262   0.23729   0.30856   1.000
    O44     O    0.75222   0.37869   0.37317   1.000
    O45     O    0.74766   0.29106   0.41593   1.000
    O46     O    0.75789   0.20313   0.20477   1.000
    O47     O    0.75123   0.16773   0.21514   1.000
    N48     N    0.24739   0.76268   0.69141   1.000
    O49     O    0.24212   0.79684   0.79522   1.000
    O50     O    0.25235   0.70891   0.58405   1.000
    O51     O    0.24779   0.62128   0.62679   1.000
    O52     O    0.24878   0.83223   0.78484   1.000
    N53     N    0.25261   0.23731   0.30857   1.000
    O54     O    0.24765   0.29107   0.41591   1.000
    O55     O    0.25221   0.37871   0.37319   1.000
    O56     O    0.25788   0.20314   0.20477   1.000
    O57     O    0.25122   0.16775   0.21514   1.000
    N58     N    0.50497   0.59571   0.43691   1.000
    O59     O    0.59054   0.59768   0.43647   1.000
    O60     O    0.41968   0.59729   0.43632   1.000
    N61     N    0.74740   0.76267   0.69141   1.000
    O62     O    0.74780   0.62127   0.62679   1.000
    O63     O    0.75236   0.70891   0.58403   1.000
    O64     O    0.74213   0.79684   0.79522   1.000
    O65     O    0.74879   0.83223   0.78484   1.000
    N66     N    0.99505   0.40427   0.56308   1.000
    O67     O    0.90948   0.40230   0.56351   1.000
    O68     O    0.08033   0.40269   0.56366   1.000
    N69     N    0.99483   0.90414   0.93692   1.000
    O70     O    0.08011   0.90256   0.93639   1.000
    O71     O    0.90926   0.90221   0.93646   1.000
loop_
    _geom_bond_atom_site_label_1
    _geom_bond_atom_site_label_2
    _geom_bond_distance
    _geom_bond_site_symmetry_2
    _ccdc_geom_bond_type
    N8     O9        2.39968      .   S
    Zr7    O9        3.51285  1_556   S
    N8     O10       2.24612      .   S
    Zr5    O10       3.27270      .   S
    N8     O11       2.21297      .   S
    Zr5    O11       3.29166      .   S
    N8     O12       2.45382      .   S
    Zr3    O12       3.48697  1_545   S
    N13    O14       1.29177      .   S
    Zr7    O14       2.48929      .   S
    N13    O15       1.29387      .   S
    Zr6    O15       2.49494      .   S
    N16    O17       1.29175      .   S
    Zr1    O17       2.48908      .   S
    N16    O18       1.29386      .   S
    Zr0    O18       2.49521      .   S
    N19    O20       1.29380      .   S
    Zr2    O20       2.49487      .   S
    N19    O21       1.29171  1_455   S
    Zr3    O21       2.48922      .   S
    N22    O23       1.29178      .   S
    Zr2    O23       2.48930      .   S
    N22    O24       1.29386      .   S
    Zr3    O24       2.49491      .   S
    N25    O26       2.21327      .   S
    Zr0    O26       3.29219      .   S
    N25    O27       2.40016      .   S
    Zr2    O27       3.51328  1_554   S
    N25    O28       2.24969      .   S
    Zr0    O28       3.27021      .   S
    N25    O29       2.45409      .   S
    Zr6    O29       3.48713  1_565   S
    N30    O31       1.29169  1_455   S
    Zr5    O31       2.48903      .   S
    N30    O32       1.29380      .   S
    Zr4    O32       2.49517      .   S
    N33    O34       2.45418      .   S
    Zr7    O34       3.48721  1_565   S
    N33    O35       2.21305      .   S
    Zr1    O35       3.29174      .   S
    N33    O36       2.40029      .   S
    Zr3    O36       3.51343  1_554   S
    N33    O37       2.25095      .   S
    Zr1    O37       3.26841      .   S
    N38    O39       2.45381      .   S
    Zr2    O39       3.48695  1_545   S
    N38    O40       2.39967      .   S
    Zr6    O40       3.51282  1_556   S
    N38    O41       2.21353      .   S
    Zr4    O41       3.29226      .   S
    N38    O42       2.24642      .   S
    Zr4    O42       3.27355      .   S
    N43    O44       2.45192      .   S
    Zr5    O44       3.48173      .   S
    N43    O45       2.39923      .   S
    Zr1    O45       3.51190      .   S
    N43    O46       2.24966      .   S
    Zr3    O46       3.26973      .   S
    N43    O47       2.21293      .   S
    Zr3    O47       3.29206      .   S
    N48    O49       2.24986      .   S
    Zr6    O49       3.26992      .   S
    N48    O50       2.39907      .   S
    Zr4    O50       3.51182      .   S
    N48    O51       2.45204      .   S
    Zr0    O51       3.48212      .   S
    N48    O52       2.21312      .   S
    Zr6    O52       3.29226      .   S
    N53    O54       2.39863      .   S
    Zr0    O54       3.51186      .   S
    N53    O55       2.45199      .   S
    Zr4    O55       3.48194      .   S
    N53    O56       2.24976      .   S
    Zr2    O56       3.26985      .   S
    N53    O57       2.21303      .   S
    Zr2    O57       3.29217      .   S
    N58    O59       1.29387      .   S
    Zr5    O59       2.49524      .   S
    N58    O60       1.29176      .   S
    Zr4    O60       2.48910      .   S
    N61    O62       2.45198      .   S
    Zr1    O62       3.48201      .   S
    N61    O63       2.39937      .   S
    Zr5    O63       3.51269      .   S
    N61    O64       2.24988      .   S
    Zr7    O64       3.26995      .   S
    N61    O65       2.21313      .   S
    Zr7    O65       3.29228      .   S
    N66    O67       1.29381      .   S
    Zr1    O67       2.49517      .   S
    N66    O68       1.29169  1_655   S
    Zr0    O68       2.48902      .   S
    N69    O70       1.29172  1_655   S
    Zr6    O70       2.48924      .   S
    N69    O71       1.29379      .   S
    Zr7    O71       2.49484      .   S
