# CIF file generated by openbabel 2.4.90, see http://openbabel.sf.net
data_I
_chemical_name_common ''
_cell_length_a 10.086
_cell_length_b 11.597
_cell_length_c 14.793
_cell_angle_alpha 91.115
_cell_angle_beta 90.06
_cell_angle_gamma 90.013
_space_group_name_H-M_alt 'P 1'
_space_group_name_Hall 'P 1'
loop_
    _symmetry_equiv_pos_as_xyz
    x,y,z
loop_
    _atom_site_label
    _atom_site_type_symbol
    _atom_site_fract_x
    _atom_site_fract_y
    _atom_site_fract_z
    _atom_site_occupancy
    N0      N    0.47919   0.97863   0.29152   1.000
    N1      N    0.02077   0.47863   0.79131   1.000
    N2      N    0.77450   0.56952   0.44269   1.000
    N3      N    0.71619   0.42191   0.94928   1.000
    N4      N    0.66509   0.67617   0.17136   1.000
    N5      N    0.89889   0.74268   0.96792   1.000
    N6      N    0.28378   0.57809   0.05069   1.000
    N7      N    0.16540   0.82392   0.32871   1.000
    N8      N    0.97920   0.52138   0.20865   1.000
    N9      N    0.63069   0.45047   0.68249   1.000
    N10     N    0.13066   0.04944   0.81746   1.000
    N11     N    0.86931   0.95056   0.18251   1.000
    N12     N    0.52077   0.02137   0.70844   1.000
    N13     N    0.10107   0.25732   0.03204   1.000
    N14     N    0.78453   0.92217   0.44942   1.000
    N15     N    0.60081   0.24261   0.46834   1.000
    N16     N    0.83457   0.17608   0.67126   1.000
    N17     N    0.27398   0.93025   0.05734   1.000
    N18     N    0.33487   0.32384   0.82860   1.000
    N19     N    0.36928   0.54954   0.31748   1.000
    N20     N    0.22547   0.43048   0.55728   1.000
    N21     N    0.72599   0.06975   0.94263   1.000
    N22     N    0.21544   0.07784   0.55055   1.000
    N23     N    0.39916   0.75740   0.53163   1.000
    Zr24    Zr   0.07515   0.75493   0.12931   1.000
    O25     O    0.11256   0.77785   0.19382   1.000
    O26     O    0.03974   0.68100   0.15980   1.000
    O27     O    0.13470   0.81652   0.10298   1.000
    O28     O    0.01831   0.74319   0.07535   1.000
    O29     O    0.00387   0.81571   0.15044   1.000
    O30     O    0.14933   0.69807   0.10726   1.000
    Zr31    Zr   0.42356   0.25492   0.62926   1.000
    O32     O    0.34954   0.19798   0.60717   1.000
    O33     O    0.48073   0.24316   0.57545   1.000
    O34     O    0.36429   0.31661   0.60293   1.000
    O35     O    0.38668   0.27781   0.69375   1.000
    O36     O    0.49530   0.31567   0.65039   1.000
    O37     O    0.45940   0.18098   0.65971   1.000
    Zr38    Zr   0.99999   0.50000   0.99999   1.000
    O39     O    0.02864   0.41614   0.00545   1.000
    O40     O    0.90311   0.47804   0.98730   1.000
    O41     O    0.97134   0.58386   0.99453   1.000
    O42     O    0.09687   0.52196   0.01268   1.000
    O43     O    0.00511   0.49969   0.93041   1.000
    O44     O    0.99487   0.50031   0.06957   1.000
    Zr45    Zr   0.11230   0.25957   0.69049   1.000
    O46     O    0.14230   0.31855   0.64553   1.000
    O47     O    0.15500   0.20089   0.64544   1.000
    O48     O    0.02207   0.22942   0.67855   1.000
    O49     O    0.11328   0.19336   0.73692   1.000
    O50     O    0.19214   0.28072   0.73202   1.000
    O51     O    0.07740   0.32807   0.72756   1.000
    Zr52    Zr   0.49999   0.00000   0.49999   1.000
    O53     O    0.47147   0.91616   0.50531   1.000
    O54     O    0.40285   0.02189   0.51264   1.000
    O55     O    0.50513   0.00031   0.56947   1.000
    O56     O    0.49484   0.99970   0.43050   1.000
    O57     O    0.52850   0.08384   0.49466   1.000
    O58     O    0.59712   0.97811   0.48733   1.000
    Zr59    Zr   0.88766   0.74044   0.30948   1.000
    O60     O    0.84497   0.79912   0.35453   1.000
    O61     O    0.97790   0.77058   0.32142   1.000
    O62     O    0.92256   0.67194   0.27241   1.000
    O63     O    0.80782   0.71928   0.26795   1.000
    O64     O    0.88669   0.80665   0.26304   1.000
    O65     O    0.85766   0.68145   0.35444   1.000
    Zr66    Zr   0.92483   0.24507   0.87066   1.000
    O67     O    0.86528   0.18348   0.89699   1.000
    O68     O    0.99610   0.18430   0.84953   1.000
    O69     O    0.88741   0.22215   0.80615   1.000
    O70     O    0.98166   0.25681   0.92462   1.000
    O71     O    0.96023   0.31900   0.84017   1.000
    O72     O    0.85064   0.30193   0.89271   1.000
    Zr73    Zr   0.61277   0.24045   0.80926   1.000
    O74     O    0.69238   0.21927   0.76778   1.000
    O75     O    0.64278   0.18153   0.85426   1.000
    O76     O    0.52250   0.27057   0.82123   1.000
    O77     O    0.65560   0.29905   0.85434   1.000
    O78     O    0.61356   0.30663   0.76289   1.000
    O79     O    0.57766   0.17194   0.77221   1.000
    Zr80    Zr   0.49998   0.50000   0.49999   1.000
    O81     O    0.53912   0.41698   0.48762   1.000
    O82     O    0.41206   0.46979   0.52214   1.000
    O83     O    0.54591   0.49018   0.56069   1.000
    O84     O    0.46085   0.58302   0.51235   1.000
    O85     O    0.45406   0.50982   0.43928   1.000
    O86     O    0.58791   0.53021   0.47784   1.000
    Zr87    Zr   0.57641   0.74509   0.37071   1.000
    O88     O    0.51923   0.75684   0.42452   1.000
    O89     O    0.50467   0.68434   0.34958   1.000
    O90     O    0.54056   0.81902   0.34026   1.000
    O91     O    0.65043   0.80202   0.39280   1.000
    O92     O    0.61329   0.72219   0.30622   1.000
    O93     O    0.63567   0.68339   0.39704   1.000
    Zr94    Zr   0.38720   0.75955   0.19071   1.000
    O95     O    0.38641   0.69338   0.23708   1.000
    O96     O    0.35719   0.81847   0.14571   1.000
    O97     O    0.30759   0.78073   0.23219   1.000
    O98     O    0.42231   0.82806   0.22776   1.000
    O99     O    0.47747   0.72944   0.17874   1.000
    O100    O    0.34437   0.70095   0.14563   1.000
    Zr101   Zr   0.00000   0.00000   1.00000   1.000
    O102    O    0.91226   0.03031   0.97783   1.000
    O103    O    0.08773   0.96969   0.02216   1.000
    O104    O    0.04590   0.00980   0.93928   1.000
    O105    O    0.96076   0.91701   0.98749   1.000
    O106    O    0.03923   0.08299   0.01249   1.000
    O107    O    0.95408   0.99020   0.06070   1.000
loop_
    _geom_bond_atom_site_label_1
    _geom_bond_atom_site_label_2
    _geom_bond_distance
    _geom_bond_site_symmetry_2
    _ccdc_geom_bond_type
    Zr24   O25       1.05496      .   S
    N7     O25       2.12305      .   S
    Zr24   O26       1.03993      .   S
    N8     O26       2.09144  1_655   S
    Zr24   O27       1.01673      .   S
    N17    O27       2.05054      .   S
    Zr24   O28       0.98949      .   S
    N5     O28       1.99300  1_656   S
    Zr24   O29       1.05045      .   S
    N11    O29       2.11810  1_655   S
    Zr24   O30       1.04574      .   S
    N6     O30       2.10543      .   S
    Zr31   O32       1.04454      .   S
    N22    O32       2.10326      .   S
    Zr31   O33       0.99067      .   S
    N15    O33       1.99528      .   S
    Zr31   O34       1.01560      .   S
    N20    O34       2.04797      .   S
    Zr31   O35       1.05350      .   S
    N18    O35       2.12090      .   S
    Zr31   O36       1.05277      .   S
    N9     O36       2.12200      .   S
    Zr31   O37       1.04092      .   S
    N12    O37       2.09301      .   S
    Zr38   O39       1.01922  1_656   S
    N13    O39       2.02710      .   S
    Zr38   O40       1.02595      .   S
    N3     O40       2.06816      .   S
    Zr38   O41       1.01927      .   S
    N5     O41       2.02723      .   S
    Zr38   O42       1.02587  1_656   S
    N6     O42       2.06802      .   S
    Zr38   O43       1.03060  1_655   S
    N1     O43       2.07363      .   S
    Zr38   O44       1.03046  1_556   S
    N8     O44       2.07342      .   S
    Zr45   O46       1.00986      .   S
    N20    O46       2.03978      .   S
    Zr45   O47       1.03719      .   S
    N22    O47       2.07429      .   S
    Zr45   O48       0.98933      .   S
    N16    O48       1.99173  1_655   S
    Zr45   O49       1.04024      .   S
    N10    O49       2.07665      .   S
    Zr45   O50       1.03881      .   S
    N18    O50       2.08119      .   S
    Zr45   O51       1.01943      .   S
    N1     O51       2.04987      .   S
    Zr52   O53       1.01844  1_545   S
    N23    O53       2.02515      .   S
    Zr52   O54       1.02860      .   S
    N22    O54       2.07292      .   S
    Zr52   O55       1.02909      .   S
    N12    O55       2.07134      .   S
    Zr52   O56       1.02914  1_545   S
    N0     O56       2.07141      .   S
    Zr52   O57       1.01842      .   S
    N15    O57       2.02512      .   S
    Zr52   O58       1.02858  1_545   S
    N14    O58       2.07288      .   S
    Zr59   O60       1.03717      .   S
    N14    O60       2.07425      .   S
    Zr59   O61       0.98933      .   S
    N7     O61       1.99175  1_455   S
    Zr59   O62       1.01945      .   S
    N8     O62       2.04991      .   S
    Zr59   O63       1.03881      .   S
    N4     O63       2.08121      .   S
    Zr59   O64       1.04025      .   S
    N11    O64       2.07668      .   S
    Zr59   O65       1.00985      .   S
    N2     O65       2.03976      .   S
    Zr66   O67       1.01673      .   S
    N21    O67       2.05055      .   S
    Zr66   O68       1.05040      .   S
    N10    O68       2.11802  1_455   S
    Zr66   O69       1.05500      .   S
    N16    O69       2.12312      .   S
    Zr66   O70       0.98942      .   S
    N13    O70       1.99289  1_454   S
    Zr66   O71       1.03993      .   S
    N1     O71       2.09145  1_455   S
    Zr66   O72       1.04575      .   S
    N3     O72       2.10544      .   S
    Zr73   O74       1.03777      .   S
    N16    O74       2.07921      .   S
    Zr73   O75       1.00951      .   S
    N21    O75       2.03898      .   S
    Zr73   O76       0.99008      .   S
    N18    O76       1.99326      .   S
    Zr73   O77       1.03668      .   S
    N3     O77       2.07263      .   S
    Zr73   O78       1.03927      .   S
    N9     O78       2.07474      .   S
    Zr73   O79       1.01963      .   S
    N12    O79       2.05003      .   S
    Zr80   O81       1.05338      .   S
    N15    O81       2.12991      .   S
    Zr80   O82       1.01069      .   S
    N20    O82       2.00762      .   S
    Zr80   O83       1.01834      .   S
    N9     O83       2.05401      .   S
    Zr80   O84       1.05339      .   S
    N23    O84       2.12993      .   S
    Zr80   O85       1.01838      .   S
    N19    O85       2.05408      .   S
    Zr80   O86       1.01070      .   S
    N2     O86       2.00764      .   S
    Zr87   O88       0.99064      .   S
    N23    O88       1.99522      .   S
    Zr87   O89       1.05277      .   S
    N19    O89       2.12199      .   S
    Zr87   O90       1.04095      .   S
    N0     O90       2.09306      .   S
    Zr87   O91       1.04452      .   S
    N14    O91       2.10322      .   S
    Zr87   O92       1.05354      .   S
    N4     O92       2.12097      .   S
    Zr87   O93       1.01559      .   S
    N2     O93       2.04795      .   S
    Zr94   O95       1.03926      .   S
    N19    O95       2.07472      .   S
    Zr94   O96       1.00952      .   S
    N17    O96       2.03902      .   S
    Zr94   O97       1.03777      .   S
    N7     O97       2.07920      .   S
    Zr94   O98       1.01961      .   S
    N0     O98       2.04999      .   S
    Zr94   O99       0.99007      .   S
    N4     O99       1.99323      .   S
    Zr94   O100      1.03670      .   S
    N6     O100      2.07267      .   S
    Zr101  O102      1.00908  1_455   S
    N21    O102      2.00442      .   S
    Zr101  O103      1.00892  1_546   S
    N17    O103      2.00417      .   S
    Zr101  O104      1.01918      .   S
    N10    O104      2.05556      .   S
    Zr101  O105      1.05347  1_445   S
    N5     O105      2.12999      .   S
    Zr101  O106      1.05341  1_556   S
    N13    O106      2.12992      .   S
    Zr101  O107      1.01911  1_446   S
    N11    O107      2.05542      .   S
