# CIF file generated by openbabel 2.4.90, see http://openbabel.sf.net
data_I
_chemical_name_common ''
_cell_length_a 10.009
_cell_length_b 13.154
_cell_length_c 15.547
_cell_angle_alpha 89.998
_cell_angle_beta 89.946
_cell_angle_gamma 89.972
_space_group_name_H-M_alt 'P 1'
_space_group_name_Hall 'P 1'
loop_
    _symmetry_equiv_pos_as_xyz
    x,y,z
loop_
    _atom_site_label
    _atom_site_type_symbol
    _atom_site_fract_x
    _atom_site_fract_y
    _atom_site_fract_z
    _atom_site_occupancy
    Lv0     Lv   0.83773   0.10542   0.03443   1.000
    Lv1     Lv   0.90033   0.91093   0.80439   1.000
    Lv2     Lv   0.67141   0.89785   0.53452   1.000
    Lv3     Lv   0.11030   0.41055   0.69815   1.000
    Lv4     Lv   0.60978   0.09145   0.30566   1.000
    Lv5     Lv   0.39842   0.59111   0.19739   1.000
    Lv6     Lv   0.17282   0.60487   0.46945   1.000
    Lv7     Lv   0.33773   0.39681   0.96904   1.000
