# CIF file generated by openbabel 2.4.90, see http://openbabel.sf.net
data_I
_chemical_name_common ''
_cell_length_a 10.009
_cell_length_b 13.154
_cell_length_c 15.547
_cell_angle_alpha 89.998
_cell_angle_beta 89.946
_cell_angle_gamma 89.972
_space_group_name_H-M_alt 'P 1'
_space_group_name_Hall 'P 1'
loop_
    _symmetry_equiv_pos_as_xyz
    x,y,z
loop_
    _atom_site_label
    _atom_site_type_symbol
    _atom_site_fract_x
    _atom_site_fract_y
    _atom_site_fract_z
    _atom_site_occupancy
    Zr0     Zr   0.11034   0.94272   0.30372   1.000
    Zr1     Zr   0.09972   0.25866   0.24793   1.000
    Zr2     Zr   0.40001   0.05837   0.80394   1.000
    Zr3     Zr   0.41059   0.74218   0.74791   1.000
    Zr4     Zr   0.89969   0.44467   0.19991   1.000
    Zr5     Zr   0.90716   0.75965   0.25572   1.000
    Zr6     Zr   0.61074   0.55899   0.69988   1.000
    Zr7     Zr   0.60025   0.24372   0.75579   1.000
    N8      N    0.83773   0.10542   0.03443   1.000
    N9      N    0.90033   0.91093   0.80439   1.000
    N10     N    0.67141   0.89785   0.53452   1.000
    N11     N    0.11030   0.41055   0.69815   1.000
    N12     N    0.60978   0.09145   0.30566   1.000
    N13     N    0.39842   0.59111   0.19739   1.000
    N14     N    0.17282   0.60487   0.46945   1.000
    N15     N    0.33773   0.39681   0.96904   1.000
    C16     C    0.72642   0.60011   0.21487   1.000
    O17     O    0.77323   0.54294   0.20111   1.000
    O18     O    0.77760   0.65780   0.23526   1.000
    O19     O    0.61657   0.59944   0.21023   1.000
    C20     C    0.84887   0.24788   0.24696   1.000
    O21     O    0.84930   0.31388   0.22621   1.000
    O22     O    0.76625   0.19731   0.26535   1.000
    O23     O    0.93175   0.23770   0.25494   1.000
    C24     C    0.28213   0.10075   0.28759   1.000
    O25     O    0.39186   0.10000   0.29246   1.000
    O26     O    0.23059   0.15825   0.26774   1.000
    O27     O    0.23567   0.04274   0.30138   1.000
    C28     C    0.93082   0.93669   0.17890   1.000
    O29     O    0.99974   0.94959   0.21373   1.000
    O30     O    0.89641   0.99140   0.13008   1.000
    O31     O    0.90466   0.87675   0.19885   1.000
    C32     C    0.92086   0.87771   0.39853   1.000
    O33     O    0.98357   0.91258   0.37519   1.000
    O34     O    0.83981   0.88683   0.44558   1.000
    O35     O    0.90840   0.82823   0.35785   1.000
    C36     C    0.08784   0.37831   0.10514   1.000
    O37     O    0.02581   0.41369   0.12847   1.000
    O38     O    0.16908   0.38685   0.05805   1.000
    O39     O    0.09944   0.32833   0.14580   1.000
    C40     C    0.07749   0.43732   0.32480   1.000
    O41     O    0.10282   0.37661   0.30492   1.000
    O42     O    0.11268   0.49157   0.37370   1.000
    O43     O    0.00939   0.45098   0.28985   1.000
    C44     C    0.16009   0.74765   0.25813   1.000
    O45     O    0.16019   0.81280   0.27893   1.000
    O46     O    0.24238   0.69693   0.23910   1.000
    O47     O    0.07651   0.73828   0.24945   1.000
    C48     C    0.22809   0.90278   0.78735   1.000
    O49     O    0.27406   0.96023   0.80127   1.000
    O50     O    0.28019   0.84469   0.76761   1.000
    O51     O    0.11834   0.90305   0.79182   1.000
    C52     C    0.57916   0.06697   0.67876   1.000
    O53     O    0.51028   0.05347   0.71363   1.000
    O54     O    0.60470   0.12681   0.69880   1.000
    O55     O    0.61336   0.01214   0.63000   1.000
    C56     C    0.43137   0.56577   0.82494   1.000
    O57     O    0.50024   0.55263   0.79005   1.000
    O58     O    0.39673   0.51099   0.87364   1.000
    O59     O    0.40599   0.62562   0.80495   1.000
    C60     C    0.42281   0.62213   0.60530   1.000
    O61     O    0.41117   0.67223   0.64592   1.000
    O62     O    0.34150   0.61394   0.55831   1.000
    O63     O    0.48476   0.58755   0.62859   1.000
    C64     C    0.78274   0.40161   0.71623   1.000
    O65     O    0.89244   0.40226   0.71141   1.000
    O66     O    0.73109   0.34419   0.73614   1.000
    O67     O    0.73630   0.45940   0.70229   1.000
    C68     C    0.34944   0.25505   0.75835   1.000
    O69     O    0.26681   0.30535   0.73952   1.000
    O70     O    0.34988   0.18936   0.77915   1.000
    O71     O    0.43224   0.26482   0.74959   1.000
    C72     C    0.58809   0.12377   0.89851   1.000
    O73     O    0.59973   0.17384   0.85788   1.000
    O74     O    0.52611   0.08863   0.87521   1.000
    O75     O    0.66927   0.11526   0.94553   1.000
    C76     C    0.66179   0.75434   0.74523   1.000
    O77     O    0.74421   0.80501   0.76374   1.000
    O78     O    0.66135   0.68904   0.72448   1.000
    O79     O    0.57880   0.76379   0.75405   1.000
loop_
    _geom_bond_atom_site_label_1
    _geom_bond_atom_site_label_2
    _geom_bond_distance
    _geom_bond_site_symmetry_2
    _ccdc_geom_bond_type
    C16    O17       0.91123      .   S
    Zr4    O17       1.80876      .   S
    C16    O18       0.96930      .   S
    Zr5    O18       1.89209      .   S
    C16    O19       1.10198      .   S
    N13    O19       2.19547      .   S
    C20    O21       0.92625      .   S
    Zr4    O21       1.83899      .   S
    C20    O22       1.09910      .   S
    N12    O22       2.18743      .   S
    C20    O23       0.84942      .   S
    Zr1    O23       1.70721  1_455   S
    C24    O25       1.10096      .   S
    N12    O25       2.19378      .   S
    C24    O26       0.96610      .   S
    Zr1    O26       1.88518      .   S
    C24    O27       0.91906      .   S
    Zr0    O27       1.81863  1_565   S
    C28    O29       0.89367      .   S
    Zr0    O29       1.78706  1_455   S
    C28    O30       1.10123      .   S
    N8     O30       2.19240  1_545   S
    C28    O31       0.88689      .   S
    Zr5    O31       1.77614      .   S
    C32    O33       0.85779      .   S
    Zr0    O33       1.73197  1_455   S
    C32    O34       1.09835      .   S
    N10    O34       2.18385      .   S
    C32    O35       0.91621      .   S
    Zr5    O35       1.82628      .   S
    C36    O37       0.85614      .   S
    Zr4    O37       1.72908  1_655   S
    C36    O38       1.09938      .   S
    N15    O38       2.18571  1_556   S
    C36    O39       0.91949      .   S
    Zr1    O39       1.83332      .   S
    C40    O41       0.89282      .   S
    Zr1    O41       1.78700      .   S
    C40    O42       1.10093      .   S
    N14    O42       2.19151      .   S
    C40    O43       0.89030      .   S
    Zr4    O43       1.78072  1_655   S
    C44    O45       0.91594      .   S
    Zr0    O45       1.82124      .   S
    C44    O46       1.10007      .   S
    N13    O46       2.18935      .   S
    C44    O47       0.85654      .   S
    Zr5    O47       1.72075  1_655   S
    C48    O49       0.91104      .   S
    Zr2    O49       1.80536  1_545   S
    C48    O50       0.97444      .   S
    Zr3    O50       1.90068      .   S
    C48    O51       1.10068      .   S
    N9     O51       2.19300  1_655   S
    C52    O53       0.89457      .   S
    Zr2    O53       1.78619      .   S
    C52    O54       0.88450      .   S
    Zr7    O54       1.77536      .   S
    C52    O55       1.10059      .   S
    N10    O55       2.19067  1_565   S
    C56    O57       0.89350      .   S
    Zr6    O57       1.78680      .   S
    C56    O58       1.10111      .   S
    N15    O58       2.19164      .   S
    C56    O59       0.88365      .   S
    Zr3    O59       1.77185      .   S
    C60    O61       0.92001      .   S
    Zr3    O61       1.83334      .   S
    C60    O62       1.09954      .   S
    N14    O62       2.18574      .   S
    C60    O63       0.85000      .   S
    Zr6    O63       1.72108      .   S
    C64    O65       1.10054      .   S
    N11    O65       2.19285  1_455   S
    C64    O66       0.96616      .   S
    Zr7    O66       1.88579      .   S
    C64    O67       0.91685      .   S
    Zr6    O67       1.81531      .   S
    C68    O69       1.09883      .   S
    N11    O69       2.18678      .   S
    C68    O70       0.92264      .   S
    Zr2    O70       1.83543      .   S
    C68    O71       0.84962      .   S
    Zr7    O71       1.70698      .   S
    C72    O73       0.91986      .   S
    Zr7    O73       1.83410      .   S
    C72    O74       0.85467      .   S
    Zr2    O74       1.72693      .   S
    C72    O75       1.09915      .   S
    N8     O75       2.18505  1_554   S
    C76    O77       1.09944      .   S
    N9     O77       2.18775      .   S
    C76    O78       0.91760      .   S
    Zr6    O78       1.82493      .   S
    C76    O79       0.85083      .   S
    Zr3    O79       1.71031      .   S
