# CIF file generated by openbabel 2.4.90, see http://openbabel.sf.net
data_I
_chemical_name_common ''
_cell_length_a 10.009
_cell_length_b 13.154
_cell_length_c 15.547
_cell_angle_alpha 89.998
_cell_angle_beta 89.946
_cell_angle_gamma 89.972
_space_group_name_H-M_alt 'P 1'
_space_group_name_Hall 'P 1'
loop_
    _symmetry_equiv_pos_as_xyz
    x,y,z
loop_
    _atom_site_label
    _atom_site_type_symbol
    _atom_site_fract_x
    _atom_site_fract_y
    _atom_site_fract_z
    _atom_site_occupancy
    C0      C    0.11034   0.94272   0.30372   1.000
    C1      C    0.09972   0.25866   0.24793   1.000
    C2      C    0.40001   0.05837   0.80394   1.000
    C3      C    0.41059   0.74218   0.74791   1.000
    C4      C    0.89969   0.44467   0.19991   1.000
    C5      C    0.90716   0.75965   0.25572   1.000
    C6      C    0.61074   0.55899   0.69988   1.000
    C7      C    0.60025   0.24372   0.75579   1.000
    C8      C    0.53058   0.97472   0.35718   1.000
    C9      C    0.78079   0.04155   0.33785   1.000
    C10     C    0.66036   0.77795   0.46678   1.000
    C11     C    0.50461   0.86293   0.58489   1.000
    C12     C    0.97917   0.02746   0.85629   1.000
    C13     C    0.72912   0.96065   0.83663   1.000
    C14     C    0.84780   0.22540   0.96684   1.000
    C15     C    0.00388   0.14141   0.08503   1.000
    C16     C    0.47746   0.47523   0.14435   1.000
    C17     C    0.22731   0.54182   0.16487   1.000
    C18     C    0.34789   0.27677   0.03665   1.000
    C19     C    0.50422   0.36105   0.91868   1.000
    C20     C    0.03099   0.52632   0.64514   1.000
    C21     C    0.28133   0.45978   0.66521   1.000
    C22     C    0.16388   0.72474   0.53735   1.000
    C23     C    0.00694   0.64196   0.41909   1.000
    C24     C    0.46681   0.11138   0.28972   1.000
    C25     C    0.55953   0.04478   0.32507   1.000
    C26     C    0.69149   0.07957   0.31475   1.000
    C27     C    0.69768   0.17191   0.27162   1.000
    C28     C    0.31998   0.10268   0.28828   1.000
    C29     C    0.81732   0.23215   0.25201   1.000
    C30     C    0.79662   0.90492   0.48453   1.000
    C31     C    0.68199   0.84829   0.50078   1.000
    C32     C    0.59967   0.89354   0.56323   1.000
    C33     C    0.65295   0.98374   0.59465   1.000
    C34     C    0.89562   0.88313   0.41698   1.000
    C35     C    0.59445   0.04980   0.66129   1.000
    C36     C    0.04343   0.89106   0.78859   1.000
    C37     C    0.95042   0.95751   0.82398   1.000
    C38     C    0.81854   0.92274   0.81347   1.000
    C39     C    0.81262   0.83065   0.76997   1.000
    C40     C    0.19024   0.90038   0.78782   1.000
    C41     C    0.69326   0.77023   0.75029   1.000
    C42     C    0.71279   0.09754   0.98442   1.000
    C43     C    0.82672   0.15490   0.00000   1.000
    C44     C    0.90925   0.11021   0.06333   1.000
    C45     C    0.85693   0.01966   0.09472   1.000
    C46     C    0.61352   0.11862   0.91691   1.000
    C47     C    0.91563   0.95388   0.16144   1.000
    C48     C    0.54154   0.61073   0.21331   1.000
    C49     C    0.44866   0.54480   0.17731   1.000
    C50     C    0.31666   0.57942   0.18830   1.000
    C51     C    0.31051   0.67098   0.23259   1.000
    C52     C    0.68847   0.60213   0.21422   1.000
    C53     C    0.19133   0.73164   0.25287   1.000
    C54     C    0.21252   0.40448   0.01906   1.000
    C55     C    0.32673   0.34729   0.00276   1.000
    C56     C    0.40939   0.39215   0.94032   1.000
    C57     C    0.35693   0.48267   0.90893   1.000
    C58     C    0.11328   0.38345   0.08670   1.000
    C59     C    0.41600   0.54855   0.84237   1.000
    C60     C    0.96738   0.39093   0.71445   1.000
    C61     C    0.06002   0.45687   0.67815   1.000
    C62     C    0.19200   0.42230   0.68888   1.000
    C63     C    0.19823   0.33077   0.73321   1.000
    C64     C    0.82059   0.39961   0.71559   1.000
    C65     C    0.31786   0.27073   0.75324   1.000
    C66     C    0.29782   0.59625   0.51946   1.000
    C67     C    0.18426   0.65419   0.50329   1.000
    C68     C    0.10127   0.61010   0.44074   1.000
    C69     C    0.15279   0.51931   0.40917   1.000
    C70     C    0.39729   0.61697   0.58688   1.000
    C71     C    0.09305   0.45421   0.34231   1.000
    C72     C    0.54156   0.21626   0.24343   1.000
    C73     C    0.80368   0.01359   0.54675   1.000
    C74     C    0.96900   0.78647   0.74178   1.000
    C75     C    0.70673   0.98884   0.04668   1.000
    C76     C    0.46681   0.71480   0.26100   1.000
    C77     C    0.20642   0.51327   0.95688   1.000
    C78     C    0.04214   0.28688   0.76202   1.000
    C79     C    0.30280   0.48757   0.45707   1.000
    C80     C    0.26807   0.02675   0.32664   1.000
    C81     C    0.79975   0.31510   0.21100   1.000
    C82     C    0.98223   0.95216   0.39998   1.000
    C83     C    0.48280   0.02156   0.69308   1.000
    C84     C    0.25835   0.17283   0.24785   1.000
    C85     C    0.88474   0.79785   0.37862   1.000
    C86     C    0.66024   0.12957   0.68190   1.000
    C87     C    0.92954   0.19638   0.27788   1.000
    C88     C    0.24003   0.97697   0.82644   1.000
    C89     C    0.71107   0.68848   0.70756   1.000
    C90     C    0.52824   0.04860   0.89989   1.000
    C91     C    0.02698   0.98226   0.19340   1.000
    C92     C    0.25400   0.83099   0.74781   1.000
    C93     C    0.62251   0.20409   0.87872   1.000
    C94     C    0.84984   0.87395   0.18187   1.000
    C95     C    0.58103   0.80430   0.77783   1.000
    C96     C    0.74038   0.52685   0.17480   1.000
    C97     C    0.21025   0.81318   0.29573   1.000
    C98     C    0.02786   0.45346   0.10372   1.000
    C99     C    0.52747   0.52001   0.81045   1.000
    C100    C    0.75040   0.67134   0.25559   1.000
    C101    C    0.12237   0.29802   0.12499   1.000
    C102    C    0.35065   0.62875   0.82200   1.000
    C103    C    0.07869   0.69814   0.22580   1.000
    C104    C    0.76899   0.47538   0.67681   1.000
    C105    C    0.30061   0.18896   0.79595   1.000
    C106    C    0.48267   0.54696   0.60386   1.000
    C107    C    0.98288   0.48461   0.30992   1.000
    C108    C    0.75864   0.32984   0.75629   1.000
    C109    C    0.38847   0.70246   0.62517   1.000
    C110    C    0.15655   0.37314   0.32216   1.000
    C111    C    0.42985   0.30547   0.72586   1.000
    O112    O    0.86799   0.13255   0.03166   1.000
    O113    O    0.83726   0.19015   0.98342   1.000
    O114    O    0.76975   0.12622   0.99221   1.000
    O115    O    0.26963   0.37589   0.01091   1.000
    O116    O    0.33731   0.31203   0.01971   1.000
    O117    O    0.36806   0.36972   0.97154   1.000
    O118    O    0.16290   0.39397   0.05288   1.000
    O119    O    0.20947   0.45888   0.98797   1.000
    O120    O    0.78183   0.00425   0.07070   1.000
    O121    O    0.70976   0.04319   0.01555   1.000
    O122    O    0.95657   0.12581   0.07418   1.000
    O123    O    0.88309   0.06493   0.07903   1.000
    O124    O    0.07057   0.41845   0.09521   1.000
    O125    O    0.11782   0.34074   0.10584   1.000
    O126    O    0.88628   0.98677   0.12808   1.000
    O127    O    0.96378   0.44906   0.15181   1.000
    O128    O    0.11105   0.27834   0.18646   1.000
    O129    O    0.46306   0.51001   0.16083   1.000
    O130    O    0.88273   0.91391   0.17165   1.000
    O131    O    0.97130   0.96807   0.17742   1.000
    O132    O    0.27199   0.56062   0.17658   1.000
    O133    O    0.82004   0.48576   0.18736   1.000
    O134    O    0.71443   0.56449   0.19451   1.000
    O135    O    0.38266   0.56211   0.18281   1.000
    O136    O    0.49510   0.57776   0.19531   1.000
    O137    O    0.87850   0.81680   0.21879   1.000
    O138    O    0.31359   0.62520   0.21044   1.000
    O139    O    0.06866   0.96249   0.24856   1.000
    O140    O    0.84972   0.37989   0.20545   1.000
    O141    O    0.94128   0.46464   0.25491   1.000
    O142    O    0.80854   0.27363   0.23150   1.000
    O143    O    0.61501   0.60643   0.21377   1.000
    O144    O    0.50417   0.66276   0.23716   1.000
    O145    O    0.71943   0.63674   0.23491   1.000
    O146    O    0.13501   0.71489   0.23933   1.000
    O147    O    0.99292   0.72890   0.24076   1.000
    O148    O    0.25092   0.70131   0.24273   1.000
    O149    O    0.38866   0.69289   0.24680   1.000
    O150    O    0.61962   0.19409   0.25753   1.000
    O151    O    0.50418   0.16382   0.26658   1.000
    O152    O    0.17904   0.21575   0.24789   1.000
    O153    O    0.28917   0.13775   0.26806   1.000
    O154    O    0.01463   0.22752   0.26291   1.000
    O155    O    0.12814   0.31590   0.28504   1.000
    O156    O    0.75750   0.20203   0.26182   1.000
    O157    O    0.87343   0.21427   0.26495   1.000
    O158    O    0.20079   0.77241   0.27430   1.000
    O159    O    0.82878   0.71550   0.25565   1.000
    O160    O    0.89595   0.77875   0.31717   1.000
    O161    O    0.69458   0.12574   0.29319   1.000
    O162    O    0.39339   0.10703   0.28900   1.000
    O163    O    0.29402   0.06471   0.30746   1.000
    O164    O    0.51317   0.07808   0.30740   1.000
    O165    O    0.16029   0.87795   0.29972   1.000
    O166    O    0.18920   0.98473   0.31518   1.000
    O167    O    0.04628   0.94744   0.35185   1.000
    O168    O    0.03797   0.46941   0.32612   1.000
    O169    O    0.62551   0.06217   0.31991   1.000
    O170    O    0.73614   0.06056   0.32630   1.000
    O171    O    0.12480   0.41368   0.33223   1.000
    O172    O    0.54505   0.00975   0.34112   1.000
    O173    O    0.12292   0.48676   0.37574   1.000
    O174    O    0.89018   0.84049   0.39780   1.000
    O175    O    0.93892   0.91764   0.40848   1.000
    O176    O    0.12703   0.56471   0.42495   1.000
    O177    O    0.22779   0.50344   0.43312   1.000
    O178    O    0.84612   0.89402   0.45075   1.000
    O179    O    0.05411   0.62603   0.42992   1.000
    O180    O    0.14277   0.63215   0.47201   1.000
    O181    O    0.30031   0.54191   0.48827   1.000
    O182    O    0.67118   0.81312   0.48378   1.000
    O183    O    0.73930   0.87661   0.49266   1.000
    O184    O    0.80015   0.95926   0.51564   1.000
    O185    O    0.64083   0.87092   0.53201   1.000
    O186    O    0.24104   0.62522   0.51137   1.000
    O187    O    0.17407   0.68947   0.52032   1.000
    O188    O    0.34755   0.60661   0.55317   1.000
    O189    O    0.72831   0.99866   0.57070   1.000
    O190    O    0.55214   0.87823   0.57406   1.000
    O191    O    0.62631   0.93864   0.57894   1.000
    O192    O    0.43998   0.58197   0.59537   1.000
    O193    O    0.39288   0.65972   0.60603   1.000
    O194    O    0.62370   0.01677   0.62797   1.000
    O195    O    0.54670   0.55298   0.65187   1.000
    O196    O    0.39953   0.72232   0.68654   1.000
    O197    O    0.04550   0.49160   0.66165   1.000
    O198    O    0.62735   0.08968   0.67159   1.000
    O199    O    0.53863   0.03567   0.67718   1.000
    O200    O    0.23667   0.44104   0.67704   1.000
    O201    O    0.68986   0.51718   0.68835   1.000
    O202    O    0.79479   0.43750   0.69620   1.000
    O203    O    0.12601   0.43958   0.68352   1.000
    O204    O    0.01370   0.42390   0.69630   1.000
    O205    O    0.63024   0.18665   0.71885   1.000
    O206    O    0.19511   0.37654   0.71105   1.000
    O207    O    0.44141   0.03996   0.74851   1.000
    O208    O    0.66091   0.62373   0.70372   1.000
    O209    O    0.56910   0.53950   0.75517   1.000
    O210    O    0.70217   0.72936   0.72893   1.000
    O211    O    0.89398   0.39527   0.71502   1.000
    O212    O    0.00476   0.33890   0.73823   1.000
    O213    O    0.78961   0.36473   0.73594   1.000
    O214    O    0.37385   0.28810   0.73955   1.000
    O215    O    0.51505   0.27459   0.74083   1.000
    O216    O    0.25804   0.30075   0.74323   1.000
    O217    O    0.12019   0.30883   0.74762   1.000
    O218    O    0.89081   0.80856   0.75588   1.000
    O219    O    0.00621   0.83877   0.76519   1.000
    O220    O    0.33229   0.78659   0.74786   1.000
    O221    O    0.22212   0.86569   0.76781   1.000
    O222    O    0.49581   0.77324   0.76287   1.000
    O223    O    0.38062   0.68547   0.78495   1.000
    O224    O    0.75294   0.80044   0.76013   1.000
    O225    O    0.63714   0.78727   0.76406   1.000
    O226    O    0.30923   0.22985   0.77460   1.000
    O227    O    0.67944   0.28678   0.75604   1.000
    O228    O    0.61138   0.22391   0.81726   1.000
    O229    O    0.81558   0.87670   0.79172   1.000
    O230    O    0.11684   0.89572   0.78820   1.000
    O231    O    0.21514   0.93868   0.80713   1.000
    O232    O    0.99692   0.92428   0.80628   1.000
    O233    O    0.35031   0.12367   0.79994   1.000
    O234    O    0.32002   0.01767   0.81519   1.000
    O235    O    0.46413   0.05348   0.85191   1.000
    O236    O    0.47173   0.53428   0.82641   1.000
    O237    O    0.88448   0.94012   0.81872   1.000
    O238    O    0.77383   0.94170   0.82505   1.000
    O239    O    0.38332   0.58865   0.83219   1.000
    O240    O    0.96479   0.99248   0.84013   1.000
    O241    O    0.38646   0.51561   0.87565   1.000
    O242    O    0.61801   0.16136   0.89782   1.000
    O243    O    0.57088   0.08361   0.90840   1.000
    O244    O    0.38316   0.43741   0.92463   1.000
    O245    O    0.28167   0.49797   0.93291   1.000
    O246    O    0.66315   0.10808   0.95067   1.000
    O247    O    0.45681   0.37660   0.92950   1.000
loop_
    _geom_bond_atom_site_label_1
    _geom_bond_atom_site_label_2
    _geom_bond_distance
    _geom_bond_site_symmetry_2
    _ccdc_geom_bond_type
    C43    O112      0.70681      .   S
    C44    O112      0.70681      .   S
    C43    O113      0.54089  1_554   S
    C14    O113      0.54089      .   S
    C43    O114      0.69456  1_554   S
    C42    O114      0.69456      .   S
    C55    O115      0.69564      .   S
    C54    O115      0.69564      .   S
    C55    O116      0.54380      .   S
    C18    O116      0.54380      .   S
    C55    O117      0.70249  1_554   S
    C56    O117      0.70249      .   S
    C54    O118      0.73610      .   S
    C58    O118      0.73610      .   S
    C54    O119      0.86397  1_554   S
    C77    O119      0.86397      .   S
    C75    O120      0.86384  1_565   S
    C45    O120      0.86384      .   S
    C75    O121      0.86384  1_565   S
    C42    O121      0.86384  1_556   S
    C44    O122      0.54321      .   S
    C15    O122      0.54321  1_455   S
    C44    O123      0.69486      .   S
    C45    O123      0.69486      .   S
    C58    O124      0.64184      .   S
    C98    O124      0.64184      .   S
    C58    O125      0.63739      .   S
    C101   O125      0.63739      .   S
    C45    O126      0.73658  1_545   S
    C47    O126      0.73658      .   S
    C98    O127      0.98640  1_455   S
    C4     O127      0.98640      .   S
    C101   O128      0.99653      .   S
    C1     O128      0.99653      .   S
    C16    O129      0.54374      .   S
    C49    O129      0.54374      .   S
    C47    O130      0.64038      .   S
    C94    O130      0.64038      .   S
    C47    O131      0.63834      .   S
    C91    O131      0.63834  1_455   S
    C17    O132      0.54271      .   S
    C50    O132      0.54271      .   S
    C96    O133      0.98270      .   S
    C4     O133      0.98270      .   S
    C96    O134      0.63739      .   S
    C52    O134      0.63739      .   S
    C49    O135      0.70374      .   S
    C50    O135      0.70374      .   S
    C49    O136      0.69488      .   S
    C48    O136      0.69488      .   S
    C94    O137      0.98840      .   S
    C5     O137      0.98840      .   S
    C50    O138      0.69436      .   S
    C51    O138      0.69436      .   S
    C91    O139      0.98871      .   S
    C0     O139      0.98871      .   S
    C4     O140      0.99204      .   S
    C81    O140      0.99204      .   S
    C4     O141      0.98712      .   S
    C107   O141      0.98712      .   S
    C81    O142      0.63793      .   S
    C29    O142      0.63793      .   S
    C48    O143      0.73747      .   S
    C52    O143      0.73747      .   S
    C48    O144      0.86331      .   S
    C76    O144      0.86331      .   S
    C52    O145      0.63795      .   S
    C100   O145      0.63795      .   S
    C103   O146      0.64100      .   S
    C53    O146      0.64100      .   S
    C103   O147      0.97671  1_455   S
    C5     O147      0.97671      .   S
    C51    O148      0.73438      .   S
    C53    O148      0.73438      .   S
    C51    O149      0.86265      .   S
    C76    O149      0.86265      .   S
    C72    O150      0.86234      .   S
    C27    O150      0.86234      .   S
    C72    O151      0.86326      .   S
    C24    O151      0.86326      .   S
    C84    O152      0.97384      .   S
    C1     O152      0.97384      .   S
    C84    O153      0.63786      .   S
    C28    O153      0.63786      .   S
    C1     O154      0.97332      .   S
    C87    O154      0.97332  1_655   S
    C1     O155      0.99059      .   S
    C110   O155      0.99059      .   S
    C29    O156      0.73403      .   S
    C27    O156      0.73403      .   S
    C29    O157      0.64130      .   S
    C87    O157      0.64130      .   S
    C53    O158      0.63856      .   S
    C97    O158      0.63856      .   S
    C100   O159      0.97632      .   S
    C5     O159      0.97632      .   S
    C5     O160      0.99411      .   S
    C85    O160      0.99411      .   S
    C27    O161      0.69442      .   S
    C26    O161      0.69442      .   S
    C28    O162      0.73713      .   S
    C24    O162      0.73713      .   S
    C28    O163      0.63700      .   S
    C80    O163      0.63700      .   S
    C24    O164      0.69477      .   S
    C25    O164      0.69477      .   S
    C97    O165      0.98959      .   S
    C0     O165      0.98959      .   S
    C0     O166      0.98027      .   S
    C80    O166      0.98027  1_545   S
    C0     O167      0.98692      .   S
    C82    O167      0.98692  1_655   S
    C107   O168      0.63839  1_655   S
    C71    O168      0.63839      .   S
    C26    O169      0.70351      .   S
    C25    O169      0.70351      .   S
    C26    O170      0.54271      .   S
    C9     O170      0.54271      .   S
    C110   O171      0.63999      .   S
    C71    O171      0.63999      .   S
    C25    O172      0.54371      .   S
    C8     O172      0.54371  1_565   S
    C71    O173      0.73703      .   S
    C69    O173      0.73703      .   S
    C85    O174      0.63761      .   S
    C34    O174      0.63761      .   S
    C82    O175      0.64152      .   S
    C34    O175      0.64152      .   S
    C69    O176      0.69497      .   S
    C68    O176      0.69497      .   S
    C69    O177      0.86383      .   S
    C79    O177      0.86383      .   S
    C34    O178      0.73566      .   S
    C30    O178      0.73566      .   S
    C23    O179      0.54328      .   S
    C68    O179      0.54328      .   S
    C68    O180      0.70249      .   S
    C67    O180      0.70249      .   S
    C79    O181      0.86414      .   S
    C66    O181      0.86414      .   S
    C10    O182      0.54379      .   S
    C31    O182      0.54379      .   S
    C30    O183      0.69558      .   S
    C31    O183      0.69558      .   S
    C30    O184      0.86374      .   S
    C73    O184      0.86374  1_545   S
    C31    O185      0.70244      .   S
    C32    O185      0.70244      .   S
    C67    O186      0.69562      .   S
    C66    O186      0.69562      .   S
    C67    O187      0.54381      .   S
    C22    O187      0.54381      .   S
    C66    O188      0.73596      .   S
    C70    O188      0.73596      .   S
    C73    O189      0.86360  1_545   S
    C33    O189      0.86360      .   S
    C32    O190      0.54325      .   S
    C11    O190      0.54325      .   S
    C32    O191      0.69496      .   S
    C33    O191      0.69496      .   S
    C70    O192      0.64177      .   S
    C106   O192      0.64177      .   S
    C70    O193      0.63771      .   S
    C109   O193      0.63771      .   S
    C33    O194      0.73645  1_565   S
    C35    O194      0.73645      .   S
    C106   O195      0.98754      .   S
    C6     O195      0.98754      .   S
    C109   O196      0.99555      .   S
    C3     O196      0.99555      .   S
    C20    O197      0.54371      .   S
    C61    O197      0.54371      .   S
    C35    O198      0.64005      .   S
    C86    O198      0.64005      .   S
    C35    O199      0.63848      .   S
    C83    O199      0.63848      .   S
    C21    O200      0.54264      .   S
    C62    O200      0.54264      .   S
    C104   O201      0.98032      .   S
    C6     O201      0.98032      .   S
    C104   O202      0.63706      .   S
    C64    O202      0.63706      .   S
    C61    O203      0.70346      .   S
    C62    O203      0.70346      .   S
    C61    O204      0.69466      .   S
    C60    O204      0.69466  1_655   S
    C86    O205      0.99154      .   S
    C7     O205      0.99154      .   S
    C62    O206      0.69433      .   S
    C63    O206      0.69433      .   S
    C83    O207      0.98597      .   S
    C2     O207      0.98597      .   S
    C6     O208      0.99072      .   S
    C89    O208      0.99072      .   S
    C6     O209      0.98870      .   S
    C99    O209      0.98870      .   S
    C89    O210      0.63817      .   S
    C41    O210      0.63817      .   S
    C60    O211      0.73689      .   S
    C64    O211      0.73689      .   S
    C60    O212      0.86313  1_655   S
    C78    O212      0.86313      .   S
    C64    O213      0.63779      .   S
    C108   O213      0.63779      .   S
    C111   O214      0.64154      .   S
    C65    O214      0.64154      .   S
    C111   O215      0.97278      .   S
    C7     O215      0.97278      .   S
    C63    O216      0.73386      .   S
    C65    O216      0.73386      .   S
    C63    O217      0.86229      .   S
    C78    O217      0.86229      .   S
    C74    O218      0.86278      .   S
    C39    O218      0.86278      .   S
    C74    O219      0.86302  1_655   S
    C36    O219      0.86302      .   S
    C92    O220      0.97715      .   S
    C3     O220      0.97715      .   S
    C92    O221      0.63756      .   S
    C40    O221      0.63756      .   S
    C3     O222      0.97430      .   S
    C95    O222      0.97430      .   S
    C3     O223      0.98902      .   S
    C102   O223      0.98902      .   S
    C41    O224      0.73382      .   S
    C39    O224      0.73382      .   S
    C41    O225      0.64124      .   S
    C95    O225      0.64124      .   S
    C65    O226      0.63783      .   S
    C105   O226      0.63783      .   S
    C7     O227      0.97449      .   S
    C108   O227      0.97449      .   S
    C7     O228      0.99679      .   S
    C93    O228      0.99679      .   S
    C39    O229      0.69435      .   S
    C38    O229      0.69435      .   S
    C40    O230      0.73734      .   S
    C36    O230      0.73734      .   S
    C40    O231      0.63739      .   S
    C88    O231      0.63739      .   S
    C36    O232      0.69491  1_455   S
    C37    O232      0.69491      .   S
    C105   O233      0.99434      .   S
    C2     O233      0.99434      .   S
    C2     O234      0.97894      .   S
    C88    O234      0.97894  1_565   S
    C2     O235      0.98647      .   S
    C90    O235      0.98647      .   S
    C99    O236      0.63849      .   S
    C59    O236      0.63849      .   S
    C38    O237      0.70338      .   S
    C37    O237      0.70338      .   S
    C38    O238      0.54278      .   S
    C13    O238      0.54278      .   S
    C102   O239      0.64045      .   S
    C59    O239      0.64045      .   S
    C37    O240      0.54370      .   S
    C12    O240      0.54370  1_545   S
    C59    O241      0.73663      .   S
    C57    O241      0.73663      .   S
    C93    O242      0.63732      .   S
    C46    O242      0.63732      .   S
    C90    O243      0.64191      .   S
    C46    O243      0.64191      .   S
    C57    O244      0.69492      .   S
    C56    O244      0.69492      .   S
    C57    O245      0.86380      .   S
    C77    O245      0.86380      .   S
    C46    O246      0.73610      .   S
    C42    O246      0.73610      .   S
    C19    O247      0.54323      .   S
    C56    O247      0.54323      .   S
