# CIF file generated by openbabel 2.4.90, see http://openbabel.sf.net
data_I
_chemical_name_common ''
_cell_length_a 10.009
_cell_length_b 13.154
_cell_length_c 15.547
_cell_angle_alpha 89.998
_cell_angle_beta 89.946
_cell_angle_gamma 89.972
_space_group_name_H-M_alt 'P 1'
_space_group_name_Hall 'P 1'
loop_
    _symmetry_equiv_pos_as_xyz
    x,y,z
loop_
    _atom_site_label
    _atom_site_type_symbol
    _atom_site_fract_x
    _atom_site_fract_y
    _atom_site_fract_z
    _atom_site_occupancy
    Zr0     Zr   0.11034   0.94272   0.30372   1.000
    Zr1     Zr   0.09972   0.25866   0.24793   1.000
    Zr2     Zr   0.40001   0.05837   0.80394   1.000
    Zr3     Zr   0.41059   0.74218   0.74791   1.000
    Zr4     Zr   0.89969   0.44467   0.19991   1.000
    Zr5     Zr   0.90716   0.75965   0.25572   1.000
    Zr6     Zr   0.61074   0.55899   0.69988   1.000
    Zr7     Zr   0.60025   0.24372   0.75579   1.000
    Zr8     Zr   0.31998   0.10268   0.28828   1.000
    Zr9     Zr   0.81732   0.23215   0.25201   1.000
    Zr10    Zr   0.89562   0.88313   0.41698   1.000
    Zr11    Zr   0.59445   0.04980   0.66129   1.000
    Zr12    Zr   0.19024   0.90038   0.78782   1.000
    Zr13    Zr   0.69326   0.77023   0.75029   1.000
    Zr14    Zr   0.61352   0.11862   0.91691   1.000
    Zr15    Zr   0.91563   0.95388   0.16144   1.000
    Zr16    Zr   0.68847   0.60213   0.21422   1.000
    Zr17    Zr   0.19133   0.73164   0.25287   1.000
    Zr18    Zr   0.11328   0.38345   0.08670   1.000
    Zr19    Zr   0.41600   0.54855   0.84237   1.000
    Zr20    Zr   0.82059   0.39961   0.71559   1.000
    Zr21    Zr   0.31786   0.27073   0.75324   1.000
    Zr22    Zr   0.39729   0.61697   0.58688   1.000
    Zr23    Zr   0.09305   0.45421   0.34231   1.000
    Zr24    Zr   0.26807   0.02675   0.32664   1.000
    Zr25    Zr   0.79975   0.31510   0.21100   1.000
    Zr26    Zr   0.98223   0.95216   0.39998   1.000
    Zr27    Zr   0.48280   0.02156   0.69308   1.000
    Zr28    Zr   0.25835   0.17283   0.24785   1.000
    Zr29    Zr   0.88474   0.79785   0.37862   1.000
    Zr30    Zr   0.66024   0.12957   0.68190   1.000
    Zr31    Zr   0.92954   0.19638   0.27788   1.000
    Zr32    Zr   0.24003   0.97697   0.82644   1.000
    Zr33    Zr   0.71107   0.68848   0.70756   1.000
    Zr34    Zr   0.52824   0.04860   0.89989   1.000
    Zr35    Zr   0.02698   0.98226   0.19340   1.000
    Zr36    Zr   0.25400   0.83099   0.74781   1.000
    Zr37    Zr   0.62251   0.20409   0.87872   1.000
    Zr38    Zr   0.84984   0.87395   0.18187   1.000
    Zr39    Zr   0.58103   0.80430   0.77783   1.000
    Zr40    Zr   0.74038   0.52685   0.17480   1.000
    Zr41    Zr   0.21025   0.81318   0.29573   1.000
    Zr42    Zr   0.02786   0.45346   0.10372   1.000
    Zr43    Zr   0.52747   0.52001   0.81045   1.000
    Zr44    Zr   0.75040   0.67134   0.25559   1.000
    Zr45    Zr   0.12237   0.29802   0.12499   1.000
    Zr46    Zr   0.35065   0.62875   0.82200   1.000
    Zr47    Zr   0.07869   0.69814   0.22580   1.000
    Zr48    Zr   0.76899   0.47538   0.67681   1.000
    Zr49    Zr   0.30061   0.18896   0.79595   1.000
    Zr50    Zr   0.48267   0.54696   0.60386   1.000
    Zr51    Zr   0.98288   0.48461   0.30992   1.000
    Zr52    Zr   0.75864   0.32984   0.75629   1.000
    Zr53    Zr   0.38847   0.70246   0.62517   1.000
    Zr54    Zr   0.15655   0.37314   0.32216   1.000
    Zr55    Zr   0.42985   0.30547   0.72586   1.000
    O56     O    0.07057   0.41845   0.09521   1.000
    O57     O    0.11782   0.34074   0.10584   1.000
    O58     O    0.96378   0.44906   0.15181   1.000
    O59     O    0.11105   0.27834   0.18646   1.000
    O60     O    0.88273   0.91391   0.17165   1.000
    O61     O    0.97130   0.96807   0.17742   1.000
    O62     O    0.82004   0.48576   0.18736   1.000
    O63     O    0.71443   0.56449   0.19451   1.000
    O64     O    0.87850   0.81680   0.21879   1.000
    O65     O    0.06866   0.96249   0.24856   1.000
    O66     O    0.84972   0.37989   0.20545   1.000
    O67     O    0.94128   0.46464   0.25491   1.000
    O68     O    0.80854   0.27363   0.23150   1.000
    O69     O    0.71943   0.63674   0.23491   1.000
    O70     O    0.13501   0.71489   0.23933   1.000
    O71     O    0.99292   0.72890   0.24076   1.000
    O72     O    0.17904   0.21575   0.24789   1.000
    O73     O    0.28917   0.13775   0.26806   1.000
    O74     O    0.01463   0.22752   0.26291   1.000
    O75     O    0.12814   0.31590   0.28504   1.000
    O76     O    0.87343   0.21427   0.26495   1.000
    O77     O    0.20079   0.77241   0.27430   1.000
    O78     O    0.82878   0.71550   0.25565   1.000
    O79     O    0.89595   0.77875   0.31717   1.000
    O80     O    0.29402   0.06471   0.30746   1.000
    O81     O    0.16029   0.87795   0.29972   1.000
    O82     O    0.18920   0.98473   0.31518   1.000
    O83     O    0.04628   0.94744   0.35185   1.000
    O84     O    0.03797   0.46941   0.32612   1.000
    O85     O    0.12480   0.41368   0.33223   1.000
    O86     O    0.89018   0.84049   0.39780   1.000
    O87     O    0.93892   0.91764   0.40848   1.000
    O88     O    0.43998   0.58197   0.59537   1.000
    O89     O    0.39288   0.65972   0.60603   1.000
    O90     O    0.54670   0.55298   0.65187   1.000
    O91     O    0.39953   0.72232   0.68654   1.000
    O92     O    0.62735   0.08968   0.67159   1.000
    O93     O    0.53863   0.03567   0.67718   1.000
    O94     O    0.68986   0.51718   0.68835   1.000
    O95     O    0.79479   0.43750   0.69620   1.000
    O96     O    0.63024   0.18665   0.71885   1.000
    O97     O    0.44141   0.03996   0.74851   1.000
    O98     O    0.66091   0.62373   0.70372   1.000
    O99     O    0.56910   0.53950   0.75517   1.000
    O100    O    0.70217   0.72936   0.72893   1.000
    O101    O    0.78961   0.36473   0.73594   1.000
    O102    O    0.37385   0.28810   0.73955   1.000
    O103    O    0.51505   0.27459   0.74083   1.000
    O104    O    0.33229   0.78659   0.74786   1.000
    O105    O    0.22212   0.86569   0.76781   1.000
    O106    O    0.49581   0.77324   0.76287   1.000
    O107    O    0.38062   0.68547   0.78495   1.000
    O108    O    0.63714   0.78727   0.76406   1.000
    O109    O    0.30923   0.22985   0.77460   1.000
    O110    O    0.67944   0.28678   0.75604   1.000
    O111    O    0.61138   0.22391   0.81726   1.000
    O112    O    0.21514   0.93868   0.80713   1.000
    O113    O    0.35031   0.12367   0.79994   1.000
    O114    O    0.32002   0.01767   0.81519   1.000
    O115    O    0.46413   0.05348   0.85191   1.000
    O116    O    0.47173   0.53428   0.82641   1.000
    O117    O    0.38332   0.58865   0.83219   1.000
    O118    O    0.61801   0.16136   0.89782   1.000
    O119    O    0.57088   0.08361   0.90840   1.000
    N120    N    0.83773   0.10542   0.03443   1.000
    O121    O    0.75044   0.10675   0.99255   1.000
    O122    O    0.86200   0.04610   0.08126   1.000
    N123    N    0.90033   0.91093   0.80439   1.000
    O124    O    0.00858   0.90333   0.79630   1.000
    O125    O    0.82663   0.85569   0.78226   1.000
    N126    N    0.67141   0.89785   0.53452   1.000
    O127    O    0.75876   0.89594   0.49263   1.000
    O128    O    0.64756   0.95731   0.58124   1.000
    N129    N    0.11030   0.41055   0.69815   1.000
    O130    O    0.18417   0.35565   0.72069   1.000
    O131    O    0.00214   0.40291   0.70658   1.000
    N132    N    0.60978   0.09145   0.30566   1.000
    O133    O    0.50158   0.09924   0.29733   1.000
    O134    O    0.68364   0.14674   0.28374   1.000
    N135    N    0.39842   0.59111   0.19739   1.000
    O136    O    0.50672   0.59877   0.20558   1.000
    O137    O    0.32467   0.64621   0.22006   1.000
    N138    N    0.17282   0.60487   0.46945   1.000
    O139    O    0.26019   0.60574   0.51131   1.000
    O140    O    0.14787   0.54582   0.42260   1.000
    N141    N    0.33773   0.39681   0.96904   1.000
    O142    O    0.36210   0.45621   0.92235   1.000
    O143    O    0.25031   0.39539   0.01096   1.000
loop_
    _geom_bond_atom_site_label_1
    _geom_bond_atom_site_label_2
    _geom_bond_distance
    _geom_bond_site_symmetry_2
    _ccdc_geom_bond_type
    Zr18   O56       0.64184      .   S
    Zr42   O56       0.64184      .   S
    Zr18   O57       0.63739      .   S
    Zr45   O57       0.63739      .   S
    Zr42   O58       0.98640  1_455   S
    Zr4    O58       0.98640      .   S
    Zr45   O59       0.99653      .   S
    Zr1    O59       0.99653      .   S
    Zr15   O60       0.64038      .   S
    Zr38   O60       0.64038      .   S
    Zr15   O61       0.63834      .   S
    Zr35   O61       0.63834  1_455   S
    Zr40   O62       0.98270      .   S
    Zr4    O62       0.98270      .   S
    Zr40   O63       0.63739      .   S
    Zr16   O63       0.63739      .   S
    Zr38   O64       0.98840      .   S
    Zr5    O64       0.98840      .   S
    Zr35   O65       0.98871      .   S
    Zr0    O65       0.98871      .   S
    Zr4    O66       0.99204      .   S
    Zr25   O66       0.99204      .   S
    Zr4    O67       0.98712      .   S
    Zr51   O67       0.98712      .   S
    Zr25   O68       0.63793      .   S
    Zr9    O68       0.63793      .   S
    Zr16   O69       0.63795      .   S
    Zr44   O69       0.63795      .   S
    Zr47   O70       0.64100      .   S
    Zr17   O70       0.64100      .   S
    Zr47   O71       0.97671  1_455   S
    Zr5    O71       0.97671      .   S
    Zr28   O72       0.97384      .   S
    Zr1    O72       0.97384      .   S
    Zr28   O73       0.63786      .   S
    Zr8    O73       0.63786      .   S
    Zr1    O74       0.97332      .   S
    Zr31   O74       0.97332  1_655   S
    Zr1    O75       0.99059      .   S
    Zr54   O75       0.99059      .   S
    Zr9    O76       0.64130      .   S
    Zr31   O76       0.64130      .   S
    Zr17   O77       0.63856      .   S
    Zr41   O77       0.63856      .   S
    Zr44   O78       0.97632      .   S
    Zr5    O78       0.97632      .   S
    Zr5    O79       0.99411      .   S
    Zr29   O79       0.99411      .   S
    Zr8    O80       0.63700      .   S
    Zr24   O80       0.63700      .   S
    Zr41   O81       0.98959      .   S
    Zr0    O81       0.98959      .   S
    Zr0    O82       0.98027      .   S
    Zr24   O82       0.98027  1_545   S
    Zr0    O83       0.98692      .   S
    Zr26   O83       0.98692  1_655   S
    Zr51   O84       0.63839  1_655   S
    Zr23   O84       0.63839      .   S
    Zr54   O85       0.63999      .   S
    Zr23   O85       0.63999      .   S
    Zr29   O86       0.63761      .   S
    Zr10   O86       0.63761      .   S
    Zr26   O87       0.64152      .   S
    Zr10   O87       0.64152      .   S
    Zr22   O88       0.64177      .   S
    Zr50   O88       0.64177      .   S
    Zr22   O89       0.63771      .   S
    Zr53   O89       0.63771      .   S
    Zr50   O90       0.98754      .   S
    Zr6    O90       0.98754      .   S
    Zr53   O91       0.99555      .   S
    Zr3    O91       0.99555      .   S
    Zr11   O92       0.64005      .   S
    Zr30   O92       0.64005      .   S
    Zr11   O93       0.63848      .   S
    Zr27   O93       0.63848      .   S
    Zr48   O94       0.98032      .   S
    Zr6    O94       0.98032      .   S
    Zr48   O95       0.63706      .   S
    Zr20   O95       0.63706      .   S
    Zr30   O96       0.99154      .   S
    Zr7    O96       0.99154      .   S
    Zr27   O97       0.98597      .   S
    Zr2    O97       0.98597      .   S
    Zr6    O98       0.99072      .   S
    Zr33   O98       0.99072      .   S
    Zr6    O99       0.98870      .   S
    Zr43   O99       0.98870      .   S
    Zr33   O100      0.63817      .   S
    Zr13   O100      0.63817      .   S
    Zr20   O101      0.63779      .   S
    Zr52   O101      0.63779      .   S
    Zr55   O102      0.64154      .   S
    Zr21   O102      0.64154      .   S
    Zr55   O103      0.97278      .   S
    Zr7    O103      0.97278      .   S
    Zr36   O104      0.97715      .   S
    Zr3    O104      0.97715      .   S
    Zr36   O105      0.63756      .   S
    Zr12   O105      0.63756      .   S
    Zr3    O106      0.97430      .   S
    Zr39   O106      0.97430      .   S
    Zr3    O107      0.98902      .   S
    Zr46   O107      0.98902      .   S
    Zr13   O108      0.64124      .   S
    Zr39   O108      0.64124      .   S
    Zr21   O109      0.63783      .   S
    Zr49   O109      0.63783      .   S
    Zr7    O110      0.97449      .   S
    Zr52   O110      0.97449      .   S
    Zr7    O111      0.99679      .   S
    Zr37   O111      0.99679      .   S
    Zr12   O112      0.63739      .   S
    Zr32   O112      0.63739      .   S
    Zr49   O113      0.99434      .   S
    Zr2    O113      0.99434      .   S
    Zr2    O114      0.97894      .   S
    Zr32   O114      0.97894  1_565   S
    Zr2    O115      0.98647      .   S
    Zr34   O115      0.98647      .   S
    Zr43   O116      0.63849      .   S
    Zr19   O116      0.63849      .   S
    Zr46   O117      0.64045      .   S
    Zr19   O117      0.64045      .   S
    Zr37   O118      0.63732      .   S
    Zr14   O118      0.63732      .   S
    Zr34   O119      0.64191      .   S
    Zr14   O119      0.64191      .   S
    N120   O121      1.09024  1_554   S
    Zr14   O121      1.81332      .   S
    N120   O122      1.09456      .   S
    Zr15   O122      1.82041  1_565   S
    N123   O124      1.09521  1_655   S
    Zr12   O124      1.82330      .   S
    N123   O125      1.09158      .   S
    Zr13   O125      1.81531      .   S
    N126   O127      1.08993      .   S
    Zr10   O127      1.81244      .   S
    N126   O128      1.09359      .   S
    Zr11   O128      1.81916  1_545   S
    N129   O130      1.09129      .   S
    Zr21   O130      1.81498      .   S
    N129   O131      1.09500      .   S
    Zr20   O131      1.82299  1_655   S
    N132   O133      1.09547      .   S
    Zr8    O133      1.82377      .   S
    N132   O134      1.09165      .   S
    Zr9    O134      1.81553      .   S
    N135   O136      1.09615      .   S
    Zr16   O136      1.82482      .   S
    N135   O137      1.09243      .   S
    Zr17   O137      1.81695      .   S
    N138   O139      1.09060      .   S
    Zr22   O139      1.81344      .   S
    N138   O140      1.09411      .   S
    Zr23   O140      1.82017      .   S
    N141   O142      1.09399      .   S
    Zr19   O142      1.81977      .   S
    N141   O143      1.09066  1_556   S
    Zr18   O143      1.81373      .   S
