# CIF file generated by openbabel 2.4.90, see http://openbabel.sf.net
data_I
_chemical_name_common 'VESTA_phase_1'
_cell_length_a 13.926
_cell_length_b 15.054
_cell_length_c 15.041
_cell_angle_alpha 117.175
_cell_angle_beta 96.398
_cell_angle_gamma 96.64
_space_group_name_H-M_alt 'P 1'
_space_group_name_Hall 'P 1'
loop_
    _symmetry_equiv_pos_as_xyz
    x,y,z
loop_
    _atom_site_label
    _atom_site_type_symbol
    _atom_site_fract_x
    _atom_site_fract_y
    _atom_site_fract_z
    _atom_site_occupancy
    Zn0     Zn   0.14540   0.62739   0.33536   1.000
    Zn1     Zn   0.35465   0.66500   0.37232   1.000
    Zn2     Zn   0.85463   0.37262   0.66460   1.000
    Zn3     Zn   0.64538   0.33502   0.62767   1.000
    H4      H    0.37810   0.64132   0.05753   1.000
    H5      H    0.00000   0.59915   0.45810   1.000
    H6      H    0.97887   0.65657   0.21313   1.000
    H7      H    0.83081   0.61071   0.47479   1.000
    H8      H    0.40610   0.66337   0.88516   1.000
    H9      H    0.03449   0.60599   0.80491   1.000
    H10     H    0.80205   0.67060   0.21871   1.000
    H11     H    0.39893   0.68573   0.70850   1.000
    H12     H    0.12179   0.94151   0.35752   1.000
    H13     H    0.49323   0.54196   0.40023   1.000
    H14     H    0.52235   0.78717   0.34335   1.000
    H15     H    0.66813   0.52489   0.38864   1.000
    H16     H    0.09379   0.11403   0.33631   1.000
    H17     H    0.46545   0.19584   0.39389   1.000
    H18     H    0.69917   0.78127   0.32938   1.000
    H19     H    0.10097   0.29109   0.31491   1.000
    H20     H    0.62192   0.35870   0.94246   1.000
    H21     H    0.99422   0.40087   0.54189   1.000
    H22     H    0.02116   0.34345   0.78680   1.000
    H23     H    0.16922   0.38931   0.52520   1.000
    H24     H    0.59392   0.33665   0.11483   1.000
    H25     H    0.96553   0.39403   0.19508   1.000
    H26     H    0.19797   0.32942   0.78120   1.000
    H27     H    0.60109   0.31430   0.29149   1.000
    H28     H    0.87823   0.05851   0.64247   1.000
    H29     H    0.50680   0.45806   0.59976   1.000
    H30     H    0.47767   0.21284   0.65664   1.000
    H31     H    0.33189   0.47513   0.61135   1.000
    H32     H    0.90623   0.88599   0.66369   1.000
    H33     H    0.53457   0.80418   0.60610   1.000
    H34     H    0.30085   0.21875   0.67061   1.000
    H35     H    0.89905   0.70893   0.68509   1.000
    C36     C    0.22542   0.60859   0.06534   1.000
    C37     C    0.30152   0.62798   0.02251   1.000
    C38     C    0.95755   0.61475   0.40696   1.000
    C39     C    0.80185   0.64315   0.34863   1.000
    C40     C    0.94276   0.64821   0.27026   1.000
    C41     C    0.26936   0.63182   0.93080   1.000
    C42     C    0.17274   0.63953   0.76230   1.000
    C43     C    0.25117   0.67085   0.63507   1.000
    C44     C    0.23210   0.60876   0.16440   1.000
    C45     C    0.16371   0.61510   0.90671   1.000
    C46     C    0.86020   0.62108   0.41536   1.000
    C47     C    0.32599   0.65109   0.86796   1.000
    C48     C    0.32038   0.67281   0.70852   1.000
    C49     C    0.11456   0.61886   0.82270   1.000
    C50     C    0.84492   0.65646   0.27449   1.000
    C51     C    0.27843   0.65522   0.78320   1.000
    C52     C    0.26390   0.67858   0.54224   1.000
    C53     C    0.27448   0.93421   0.39009   1.000
    C54     C    0.19837   0.97683   0.37093   1.000
    C55     C    0.54196   0.59307   0.38476   1.000
    C56     C    0.69824   0.65119   0.35654   1.000
    C57     C    0.55797   0.72991   0.35161   1.000
    C58     C    0.23053   0.06881   0.36754   1.000
    C59     C    0.32719   0.23804   0.36066   1.000
    C60     C    0.24876   0.36529   0.33012   1.000
    C61     C    0.26784   0.83508   0.38960   1.000
    C62     C    0.33620   0.09335   0.38433   1.000
    C63     C    0.63925   0.58446   0.37841   1.000
    C64     C    0.17392   0.13157   0.34863   1.000
    C65     C    0.17954   0.29139   0.32778   1.000
    C66     C    0.38537   0.17766   0.38098   1.000
    C67     C    0.65581   0.72551   0.34340   1.000
    C68     C    0.22149   0.21669   0.34491   1.000
    C69     C    0.23607   0.45824   0.32285   1.000
    C70     C    0.77461   0.39143   0.93465   1.000
    C71     C    0.69850   0.37204   0.97748   1.000
    C72     C    0.04247   0.38527   0.59303   1.000
    C73     C    0.19818   0.35687   0.65130   1.000
    C74     C    0.05727   0.35181   0.72973   1.000
    C75     C    0.73066   0.36821   0.06919   1.000
    C76     C    0.82728   0.36050   0.23770   1.000
    C77     C    0.74885   0.32918   0.36493   1.000
    C78     C    0.76793   0.39125   0.83559   1.000
    C79     C    0.83631   0.38493   0.09328   1.000
    C80     C    0.13982   0.37894   0.58464   1.000
    C81     C    0.67404   0.34894   0.13204   1.000
    C82     C    0.67964   0.32722   0.29147   1.000
    C83     C    0.88546   0.38116   0.17723   1.000
    C84     C    0.15510   0.34356   0.72551   1.000
    C85     C    0.72159   0.34481   0.21679   1.000
    C86     C    0.73613   0.32144   0.45775   1.000
    C87     C    0.72555   0.06581   0.60990   1.000
    C88     C    0.80165   0.02319   0.62906   1.000
    C89     C    0.45807   0.40695   0.61523   1.000
    C90     C    0.30178   0.34883   0.64345   1.000
    C91     C    0.44206   0.27011   0.64838   1.000
    C92     C    0.76949   0.93121   0.63240   1.000
    C93     C    0.67284   0.76198   0.63934   1.000
    C94     C    0.75127   0.63473   0.66988   1.000
    C95     C    0.73219   0.16493   0.61036   1.000
    C96     C    0.66382   0.90667   0.61566   1.000
    C97     C    0.36078   0.41556   0.62158   1.000
    C98     C    0.82611   0.86845   0.65137   1.000
    C99     C    0.82049   0.70863   0.67222   1.000
    C100    C    0.61465   0.82236   0.61900   1.000
    C101    C    0.34422   0.27451   0.65659   1.000
    C102    C    0.77854   0.78333   0.65509   1.000
    C103    C    0.76395   0.54178   0.67715   1.000
    S104    S    0.13053   0.64828   0.65372   1.000
    S105    S    0.10956   0.59228   0.99504   1.000
    S106    S    0.36941   0.34702   0.35246   1.000
    S107    S    0.39033   0.00505   0.40669   1.000
    S108    S    0.86949   0.35175   0.34628   1.000
    S109    S    0.89046   0.40774   0.00496   1.000
    S110    S    0.63062   0.65299   0.64753   1.000
    S111    S    0.60969   0.99496   0.59330   1.000
    N112    N    0.99849   0.62819   0.33581   1.000
    N113    N    0.50162   0.66436   0.37144   1.000
    N114    N    0.00154   0.37183   0.66418   1.000
    N115    N    0.49841   0.33565   0.62855   1.000
    O116    O    0.34963   0.68692   0.52202   1.000
    O117    O    0.15029   0.58586   0.18758   1.000
    O118    O    0.18364   0.67301   0.48779   1.000
    O119    O    0.31692   0.63402   0.21899   1.000
    O120    O    0.15037   0.47832   0.31485   1.000
    O121    O    0.34968   0.81225   0.41239   1.000
    O122    O    0.31637   0.51294   0.32845   1.000
    O123    O    0.18307   0.78014   0.36430   1.000
    O124    O    0.65040   0.31310   0.47797   1.000
    O125    O    0.84974   0.41414   0.81241   1.000
    O126    O    0.81639   0.32703   0.51221   1.000
    O127    O    0.68310   0.36600   0.78100   1.000
    O128    O    0.84966   0.52171   0.68516   1.000
    O129    O    0.65034   0.18777   0.58760   1.000
    O130    O    0.68365   0.48708   0.67154   1.000
    O131    O    0.81696   0.21987   0.63569   1.000
loop_
    _geom_bond_atom_site_label_1
    _geom_bond_atom_site_label_2
    _geom_bond_distance
    _geom_bond_site_symmetry_2
    _ccdc_geom_bond_type
    S109   C79       1.74106      .   S
    S109   C70       1.75287  1_554   S
    C37    H4        1.08799      .   S
    C37    C36       1.36962      .   S
    C37    C41       1.43097  1_554   S
    C36    C44       1.48128      .   S
    C36    S105      1.75282  1_554   S
    C75    C79       1.43932      .   S
    C75    C81       1.40117      .   S
    C75    C71       1.43095  1_554   S
    C79    C83       1.39564      .   S
    H24    C81       1.09098      .   S
    C81    C85       1.40042      .   S
    C44    O117      1.28288      .   S
    C44    O119      1.26842      .   S
    C83    H25       1.09033      .   S
    C83    C76       1.39463      .   S
    O117   Zn0       2.02741      .   S
    H6     C40       1.08977      .   S
    C85    C76       1.43861      .   S
    C85    C82       1.43359      .   S
    H10    C50       1.08929      .   S
    O119   Zn1       2.12203      .   S
    C76    S108      1.74087      .   S
    C40    C50       1.38814      .   S
    C40    N112      1.34908      .   S
    C50    C39       1.40312      .   S
    C82    H27       1.08876      .   S
    C82    C77       1.37004      .   S
    O120   C69       1.27074      .   S
    O120   Zn0       2.13180      .   S
    H19    C65       1.08876      .   S
    C69    O122      1.27995      .   S
    C69    C60       1.48110      .   S
    C65    C60       1.36994      .   S
    C65    C68       1.43363      .   S
    O122   Zn1       2.05414      .   S
    H18    C67       1.08933      .   S
    C60    S106      1.75415      .   S
    Zn0    N112      2.04813  1_455   S
    Zn0    O123      2.12328      .   S
    Zn0    O118      2.05348      .   S
    N112   C38       1.34842      .   S
    H16    C64       1.09095      .   S
    H14    C57       1.08975      .   S
    C67    C57       1.38816      .   S
    C67    C56       1.40316      .   S
    C68    C64       1.40053      .   S
    C68    C59       1.43859      .   S
    S108   C77       1.75403      .   S
    C64    C58       1.40109      .   S
    C39    C56       1.47513      .   S
    C39    C46       1.40126      .   S
    C57    N113      1.34917      .   S
    S106   C59       1.74086      .   S
    C56    C63       1.40118      .   S
    H12    C54       1.08798      .   S
    C59    C66       1.39462      .   S
    O123   C61       1.26843      .   S
    C77    C86       1.48086      .   S
    C58    C54       1.43058  1_545   S
    C58    C62       1.43936      .   S
    C54    C53       1.36965      .   S
    N113   Zn1       2.04939      .   S
    N113   C55       1.34844      .   S
    Zn1    O121      2.02632      .   S
    Zn1    O116      2.13197      .   S
    C63    C55       1.38562      .   S
    C63    H15       1.08871      .   S
    C66    C62       1.39554      .   S
    C66    H17       1.09038      .   S
    C62    S107      1.74118      .   S
    C55    H13       1.08834      .   S
    C61    C53       1.48096      .   S
    C61    O121      1.28299      .   S
    C53    S107      1.75264  1_565   S
    C38    C46       1.38565      .   S
    C38    H5        1.04494  1_655   S
    C46    H7        1.08861      .   S
    C86    O124      1.27073      .   S
    C86    O126      1.28015      .   S
    O124   Zn3       2.13199      .   S
    O118   C52       1.28010      .   S
    O126   Zn2       2.05298      .   S
    O116   C52       1.27071      .   S
    H23    C80       1.08876      .   S
    H21    C72       1.08839  1_655   S
    C52    C43       1.48102      .   S
    C80    C72       1.38561      .   S
    C80    C73       1.40048      .   S
    O129   C95       1.28286      .   S
    O129   Zn3       2.02632      .   S
    C72    N114      1.34842      .   S
    S111   C87       1.75263  1_565   S
    S111   C96       1.74116      .   S
    H29    C89       1.08836      .   S
    H33    C100      1.09039      .   S
    C87    C95       1.48114      .   S
    C87    C88       1.36964      .   S
    C95    O131      1.26838      .   S
    H31    C97       1.08870      .   S
    C89    C97       1.38561      .   S
    C89    N115      1.34845      .   S
    C96    C100      1.39549      .   S
    C96    C92       1.43940      .   S
    C100   C93       1.39474      .   S
    C97    C90       1.40119      .   S
    Zn3    N115      2.04941      .   S
    Zn3    O130      2.05417      .   S
    Zn3    O127      2.12203      .   S
    N115   C91       1.34918      .   S
    C88    C92       1.43019  1_545   S
    C88    H28       1.08798      .   S
    C92    C98       1.40147      .   S
    C43    S104      1.75405      .   S
    C43    C48       1.36993      .   S
    O131   Zn2       2.12349      .   S
    C93    S110      1.74079      .   S
    C93    C102      1.43859      .   S
    C90    C73       1.47500      .   S
    C90    C101      1.40316      .   S
    S110   C94       1.75417      .   S
    C91    C101      1.38816      .   S
    C91    H30       1.08976      .   S
    C73    C84       1.40408      .   S
    C98    C102      1.40054      .   S
    C98    H32       1.09096      .   S
    S104   C42       1.74088      .   S
    C102   C99       1.43360      .   S
    C101   H34       1.08935      .   S
    N114   Zn2       2.04806  1_455   S
    N114   C74       1.34909      .   S
    Zn2    O128      2.13169      .   S
    Zn2    O125      2.02788      .   S
    C94    C99       1.36994      .   S
    C94    C103      1.48110      .   S
    O130   C103      1.27994      .   S
    C99    H35       1.08876      .   S
    C103   O128      1.27075      .   S
    H11    C48       1.08876      .   S
    C48    C51       1.43361      .   S
    C84    C74       1.38811      .   S
    C84    H26       1.08822      .   S
    C74    H22       1.08897      .   S
    C42    C51       1.43860      .   S
    C42    C49       1.39378      .   S
    O127   C78       1.26840      .   S
    C51    C47       1.40055      .   S
    H9     C49       1.09028      .   S
    O125   C78       1.28289      .   S
    C49    C45       1.39643      .   S
    C78    C70       1.48125      .   S
    C47    H8        1.09096      .   S
    C47    C41       1.40107      .   S
    C45    C41       1.43933      .   S
    C45    S105      1.74121      .   S
    C70    C71       1.36961      .   S
    H20    C71       1.08799      .   S
    Zn0    Zn1       2.84437      .   S
    Zn2    Zn3       2.84439      .   S
