# CIF file generated by openbabel 2.4.90, see http://openbabel.sf.net
data_I
_chemical_name_common ''
_cell_length_a 14.828
_cell_length_b 14.816
_cell_length_c 16.775
_cell_angle_alpha 102.675
_cell_angle_beta 102.684
_cell_angle_gamma 115.839
_space_group_name_H-M_alt 'P 1'
_space_group_name_Hall 'P 1'
loop_
    _symmetry_equiv_pos_as_xyz
    x,y,z
loop_
    _atom_site_label
    _atom_site_type_symbol
    _atom_site_fract_x
    _atom_site_fract_y
    _atom_site_fract_z
    _atom_site_occupancy
    C0      C    0.52590   0.92493   0.92119   1.000
    C1      C    0.07463   0.47341   0.57820   1.000
    C2      C    0.47409   0.07509   0.07879   1.000
    C3      C    0.92537   0.52661   0.42178   1.000
    C4      C    0.32889   0.67073   0.74980   1.000
    C5      C    0.67111   0.32929   0.25011   1.000
    C6      C    0.47733   0.53783   0.83414   1.000
    C7      C    0.57879   0.44247   0.84376   1.000
    C8      C    0.87440   0.74247   0.92363   1.000
    C9      C    0.77100   0.83721   0.91382   1.000
    C10     C    0.13367   0.60326   0.91597   1.000
    C11     C    0.98646   0.56721   0.97568   1.000
    C12     C    0.78913   0.55709   0.73939   1.000
    C13     C    0.93562   0.59102   0.67946   1.000
    C14     C    0.61239   0.33415   0.04027   1.000
    C15     C    0.69800   0.50296   0.01101   1.000
    C16     C    0.80390   0.35614   0.82989   1.000
    C17     C    0.72329   0.18958   0.86405   1.000
    C18     C    0.46160   0.52268   0.66508   1.000
    C19     C    0.55727   0.42153   0.65570   1.000
    C20     C    0.25789   0.12531   0.57594   1.000
    C21     C    0.16282   0.22841   0.58547   1.000
    C22     C    0.39656   0.86615   0.58379   1.000
    C23     C    0.43285   0.01355   0.52410   1.000
    C24     C    0.44355   0.21130   0.76054   1.000
    C25     C    0.40929   0.06458   0.82042   1.000
    C26     C    0.66638   0.38816   0.45988   1.000
    C27     C    0.49759   0.30255   0.48898   1.000
    C28     C    0.64383   0.19611   0.67002   1.000
    C29     C    0.81031   0.27657   0.63590   1.000
    C30     C    0.52267   0.46220   0.16585   1.000
    C31     C    0.42121   0.55755   0.15623   1.000
    C32     C    0.12560   0.25755   0.07636   1.000
    C33     C    0.22899   0.16281   0.08616   1.000
    C34     C    0.86633   0.39676   0.08401   1.000
    C35     C    0.01353   0.43281   0.02431   1.000
    C36     C    0.21087   0.44293   0.26060   1.000
    C37     C    0.06438   0.40900   0.32053   1.000
    C38     C    0.38761   0.66587   0.95972   1.000
    C39     C    0.30200   0.49706   0.98898   1.000
    C40     C    0.19610   0.64388   0.17010   1.000
    C41     C    0.27671   0.81045   0.13594   1.000
    C42     C    0.53840   0.47734   0.33491   1.000
    C43     C    0.44272   0.57850   0.34428   1.000
    C44     C    0.74210   0.87471   0.42405   1.000
    C45     C    0.83718   0.77162   0.41451   1.000
    C46     C    0.60344   0.13387   0.41620   1.000
    C47     C    0.56715   0.98647   0.47586   1.000
    C48     C    0.55645   0.78872   0.23945   1.000
    C49     C    0.59071   0.93544   0.17957   1.000
    C50     C    0.33362   0.61186   0.54010   1.000
    C51     C    0.50241   0.69747   0.51100   1.000
    C52     C    0.35617   0.80392   0.32996   1.000
    C53     C    0.18969   0.72345   0.36408   1.000
    C54     C    0.55318   0.74747   0.86776   1.000
    C55     C    0.61739   0.69371   0.87416   1.000
    C56     C    0.56443   0.58229   0.85486   1.000
    C57     C    0.62129   0.52906   0.86013   1.000
    C58     C    0.73374   0.58622   0.88581   1.000
    C59     C    0.78731   0.69779   0.90415   1.000
    C60     C    0.72962   0.75066   0.89850   1.000
    C61     C    0.12774   0.61287   0.75530   1.000
    C62     C    0.04318   0.59789   0.79350   1.000
    C63     C    0.05770   0.59209   0.87748   1.000
    C64     C    0.97576   0.57217   0.91072   1.000
    C65     C    0.87832   0.55857   0.86075   1.000
    C66     C    0.86478   0.56756   0.77797   1.000
    C67     C    0.94644   0.58650   0.74452   1.000
    C68     C    0.60183   0.14746   0.96563   1.000
    C69     C    0.65987   0.24999   0.95216   1.000
    C70     C    0.65378   0.33932   0.99383   1.000
    C71     C    0.70203   0.43372   0.97760   1.000
    C72     C    0.75373   0.43994   0.91623   1.000
    C73     C    0.76328   0.35185   0.87687   1.000
    C74     C    0.71771   0.25859   0.89555   1.000
    C75     C    0.25205   0.44632   0.63151   1.000
    C76     C    0.30601   0.38230   0.62512   1.000
    C77     C    0.41735   0.43552   0.64443   1.000
    C78     C    0.47075   0.37882   0.63929   1.000
    C79     C    0.41385   0.26630   0.61376   1.000
    C80     C    0.30235   0.21247   0.59533   1.000
    C81     C    0.24930   0.26999   0.60084   1.000
    C82     C    0.38681   0.87208   0.74440   1.000
    C83     C    0.40207   0.95681   0.70628   1.000
    C84     C    0.40787   0.94225   0.62230   1.000
    C85     C    0.42793   0.02428   0.58909   1.000
    C86     C    0.44170   0.12185   0.63909   1.000
    C87     C    0.43286   0.13549   0.72190   1.000
    C88     C    0.41374   0.05371   0.75533   1.000
    C89     C    0.85266   0.39819   0.53443   1.000
    C90     C    0.75019   0.34029   0.54789   1.000
    C91     C    0.66107   0.34664   0.50620   1.000
    C92     C    0.56670   0.29841   0.52236   1.000
    C93     C    0.56032   0.24654   0.58370   1.000
    C94     C    0.64824   0.23682   0.62308   1.000
    C95     C    0.74145   0.28232   0.60443   1.000
    C96     C    0.44682   0.25256   0.13222   1.000
    C97     C    0.38261   0.30632   0.12582   1.000
    C98     C    0.43557   0.41774   0.14512   1.000
    C99     C    0.37870   0.47096   0.13985   1.000
    C100    C    0.26626   0.41380   0.11418   1.000
    C101    C    0.21269   0.30223   0.09583   1.000
    C102    C    0.27038   0.24936   0.10149   1.000
    C103    C    0.87226   0.38716   0.24468   1.000
    C104    C    0.95682   0.40213   0.20649   1.000
    C105    C    0.94230   0.40794   0.12251   1.000
    C106    C    0.02424   0.42785   0.08927   1.000
    C107    C    0.12168   0.44146   0.13923   1.000
    C108    C    0.13522   0.43246   0.22202   1.000
    C109    C    0.05355   0.41352   0.25546   1.000
    C110    C    0.39817   0.85256   0.03436   1.000
    C111    C    0.34012   0.75003   0.04780   1.000
    C112    C    0.34622   0.66070   0.00610   1.000
    C113    C    0.29797   0.56630   0.02234   1.000
    C114    C    0.24626   0.56008   0.08375   1.000
    C115    C    0.23671   0.64817   0.12312   1.000
    C116    C    0.28229   0.74144   0.10444   1.000
    C117    C    0.74795   0.55371   0.36848   1.000
    C118    C    0.69399   0.61772   0.37487   1.000
    C119    C    0.58265   0.56451   0.35556   1.000
    C120    C    0.52925   0.62120   0.36069   1.000
    C121    C    0.58614   0.73372   0.38623   1.000
    C122    C    0.69764   0.78755   0.40466   1.000
    C123    C    0.75069   0.73004   0.39910   1.000
    C124    C    0.61318   0.12794   0.25550   1.000
    C125    C    0.59793   0.04322   0.29371   1.000
    C126    C    0.59213   0.05778   0.37769   1.000
    C127    C    0.57207   0.97575   0.41089   1.000
    C128    C    0.55829   0.87817   0.36089   1.000
    C129    C    0.56714   0.86453   0.27806   1.000
    C130    C    0.58626   0.94631   0.24465   1.000
    C131    C    0.14734   0.60183   0.46555   1.000
    C132    C    0.24981   0.65973   0.45210   1.000
    C133    C    0.33893   0.65339   0.49373   1.000
    C134    C    0.43330   0.70162   0.47762   1.000
    C135    C    0.43968   0.75349   0.41629   1.000
    C136    C    0.35176   0.76320   0.37691   1.000
    C137    C    0.25854   0.71771   0.39555   1.000
    C138    C    0.79243   0.53238   0.89309   1.000
    C139    C    0.46789   0.20780   0.60673   1.000
    C140    C    0.20757   0.46764   0.10690   1.000
    C141    C    0.53211   0.79223   0.39326   1.000
    C142    C    0.45121   0.68772   0.84248   1.000
    C143    C    0.60272   0.84982   0.88920   1.000
    C144    C    0.21979   0.63672   0.80534   1.000
    C145    C    0.10608   0.60195   0.67420   1.000
    C146    C    0.52581   0.13551   0.99443   1.000
    C147    C    0.62782   0.07620   0.94459   1.000
    C148    C    0.31155   0.54841   0.65690   1.000
    C149    C    0.14976   0.39651   0.60997   1.000
    C150    C    0.36300   0.77997   0.69440   1.000
    C151    C    0.39745   0.89366   0.82540   1.000
    C152    C    0.86501   0.47467   0.50606   1.000
    C153    C    0.92352   0.37165   0.55507   1.000
    C154    C    0.54879   0.31230   0.15750   1.000
    C155    C    0.39727   0.15020   0.11078   1.000
    C156    C    0.78021   0.36331   0.19464   1.000
    C157    C    0.89391   0.39807   0.32573   1.000
    C158    C    0.47419   0.86451   0.00555   1.000
    C159    C    0.37218   0.92382   0.05540   1.000
    C160    C    0.68845   0.45162   0.34300   1.000
    C161    C    0.85024   0.60351   0.39001   1.000
    C162    C    0.63699   0.22006   0.30559   1.000
    C163    C    0.60255   0.10636   0.17459   1.000
    C164    C    0.13499   0.52536   0.49393   1.000
    C165    C    0.07648   0.62838   0.44492   1.000
    O166    O    0.43618   0.85853   0.01996   1.000
    O167    O    0.50004   0.89472   0.96337   1.000
    O168    O    0.32210   0.61350   0.01422   1.000
    O169    O    0.34317   0.70536   0.02695   1.000
    O170    O    0.36692   0.66328   0.98291   1.000
    O171    O    0.70001   0.46834   0.99430   1.000
    O172    O    0.27212   0.56319   0.05305   1.000
    O173    O    0.29998   0.53168   0.00566   1.000
    O174    O    0.01889   0.43033   0.05679   1.000
    O175    O    0.36915   0.80129   0.04108   1.000
    O176    O    0.38517   0.88819   0.04488   1.000
    O177    O    0.63308   0.33674   0.01705   1.000
    O178    O    0.31121   0.74573   0.07612   1.000
    O179    O    0.42314   0.99945   0.06710   1.000
    O180    O    0.16914   0.27989   0.08609   1.000
    O181    O    0.43568   0.11264   0.09479   1.000
    O182    O    0.53832   0.09073   0.12669   1.000
    O183    O    0.49995   0.10530   0.03661   1.000
    O184    O    0.22691   0.51386   0.09533   1.000
    O185    O    0.24149   0.60413   0.10344   1.000
    O186    O    0.90431   0.40235   0.10326   1.000
    O187    O    0.24969   0.20609   0.09382   1.000
    O188    O    0.98327   0.41790   0.10589   1.000
    O189    O    0.07296   0.43466   0.11425   1.000
    O190    O    0.24153   0.27579   0.09866   1.000
    O191    O    0.23948   0.35802   0.10501   1.000
    O192    O    0.32649   0.27784   0.11366   1.000
    O193    O    0.25950   0.69480   0.11378   1.000
    O194    O    0.27950   0.77594   0.12019   1.000
    O195    O    0.23691   0.44072   0.11054   1.000
    O196    O    0.16462   0.45455   0.12306   1.000
    O197    O    0.42205   0.20138   0.12150   1.000
    O198    O    0.32248   0.44238   0.12701   1.000
    O199    O    0.94956   0.40503   0.16450   1.000
    O200    O    0.21641   0.64603   0.14661   1.000
    O201    O    0.41471   0.27944   0.12902   1.000
    O202    O    0.40909   0.36203   0.13547   1.000
    O203    O    0.49780   0.28243   0.14486   1.000
    O204    O    0.12845   0.43696   0.18062   1.000
    O205    O    0.40714   0.44435   0.14249   1.000
    O206    O    0.39996   0.51426   0.14804   1.000
    O207    O    0.47912   0.43997   0.15549   1.000
    O208    O    0.60995   0.32080   0.20380   1.000
    O209    O    0.60786   0.11715   0.21504   1.000
    O210    O    0.58848   0.94087   0.21211   1.000
    O211    O    0.82623   0.37523   0.21966   1.000
    O212    O    0.72566   0.34630   0.22237   1.000
    O213    O    0.91454   0.39464   0.22559   1.000
    O214    O    0.00519   0.40782   0.23098   1.000
    O215    O    0.09439   0.42299   0.23874   1.000
    O216    O    0.17304   0.43770   0.24131   1.000
    O217    O    0.56179   0.82662   0.25876   1.000
    O218    O    0.57670   0.90542   0.26136   1.000
    O219    O    0.59209   0.99476   0.26918   1.000
    O220    O    0.88309   0.39261   0.28521   1.000
    O221    O    0.65405   0.27468   0.27785   1.000
    O222    O    0.67978   0.39045   0.29656   1.000
    O223    O    0.05897   0.41126   0.28800   1.000
    O224    O    0.60555   0.08558   0.27460   1.000
    O225    O    0.62509   0.17400   0.28054   1.000
    O226    O    0.56272   0.87135   0.31948   1.000
    O227    O    0.59503   0.05050   0.33570   1.000
    O228    O    0.90964   0.46234   0.37376   1.000
    O229    O    0.35397   0.78356   0.35343   1.000
    O230    O    0.56053   0.52092   0.34524   1.000
    O231    O    0.71820   0.50266   0.35574   1.000
    O232    O    0.48599   0.59985   0.35248   1.000
    O233    O    0.55595   0.59285   0.35813   1.000
    O234    O    0.63832   0.59111   0.36522   1.000
    O235    O    0.55770   0.67746   0.37346   1.000
    O236    O    0.54520   0.83520   0.37707   1.000
    O237    O    0.56518   0.92696   0.38589   1.000
    O238    O    0.22411   0.72058   0.37981   1.000
    O239    O    0.72097   0.58571   0.37168   1.000
    O240    O    0.79910   0.57861   0.37924   1.000
    O241    O    0.72234   0.67388   0.38699   1.000
    O242    O    0.30515   0.74046   0.38623   1.000
    O243    O    0.39572   0.75835   0.39660   1.000
    O244    O    0.58210   0.01676   0.39429   1.000
    O245    O    0.59779   0.09582   0.39695   1.000
    O246    O    0.55912   0.76297   0.38975   1.000
    O247    O    0.64189   0.76064   0.39544   1.000
    O248    O    0.88781   0.56506   0.40590   1.000
    O249    O    0.48589   0.77286   0.40477   1.000
    O250    O    0.25418   0.68872   0.42383   1.000
    O251    O    0.72417   0.75879   0.40188   1.000
    O252    O    0.79393   0.75083   0.40680   1.000
    O253    O    0.71987   0.83113   0.41435   1.000
    O254    O    0.56961   0.98111   0.44338   1.000
    O255    O    0.43649   0.72755   0.44695   1.000
    O256    O    0.00092   0.57749   0.43335   1.000
    O257    O    0.89519   0.50064   0.46392   1.000
    O258    O    0.11191   0.61510   0.45524   1.000
    O259    O    0.19858   0.63078   0.45883   1.000
    O260    O    0.29437   0.65656   0.47292   1.000
    O261    O    0.66372   0.36740   0.48304   1.000
    O262    O    0.14117   0.56359   0.47974   1.000
    O263    O    0.38611   0.67750   0.48567   1.000
    O264    O    0.46786   0.69954   0.49431   1.000
    O265    O    0.53214   0.30048   0.50567   1.000
    O266    O    0.33627   0.63262   0.51692   1.000
    O267    O    0.10481   0.49938   0.53607   1.000
    O268    O    0.85883   0.43643   0.52024   1.000
    O269    O    0.61388   0.32252   0.51428   1.000
    O270    O    0.70563   0.34347   0.52705   1.000
    O271    O    0.56351   0.27247   0.55303   1.000
    O272    O    0.43039   0.01891   0.55660   1.000
    O273    O    0.80142   0.36924   0.54116   1.000
    O274    O    0.88809   0.38492   0.54475   1.000
    O275    O    0.74582   0.31130   0.57616   1.000
    O276    O    0.99907   0.42253   0.56663   1.000
    O277    O    0.28012   0.16889   0.58564   1.000
    O278    O    0.11219   0.43496   0.59409   1.000
    O279    O    0.09036   0.53768   0.62620   1.000
    O280    O    0.51411   0.22717   0.59522   1.000
    O281    O    0.60428   0.24168   0.60339   1.000
    O282    O    0.40221   0.90420   0.60305   1.000
    O283    O    0.20606   0.24920   0.59316   1.000
    O284    O    0.41790   0.98326   0.60569   1.000
    O285    O    0.43481   0.07306   0.61409   1.000
    O286    O    0.27583   0.24123   0.59809   1.000
    O287    O    0.35810   0.23939   0.60454   1.000
    O288    O    0.27766   0.32614   0.61298   1.000
    O289    O    0.69484   0.25957   0.61376   1.000
    O290    O    0.77588   0.27944   0.62016   1.000
    O291    O    0.44087   0.23705   0.61024   1.000
    O292    O    0.45479   0.16482   0.62291   1.000
    O293    O    0.20090   0.42141   0.62074   1.000
    O294    O    0.44230   0.32256   0.62653   1.000
    O295    O    0.40497   0.94953   0.66429   1.000
    O296    O    0.64603   0.21646   0.64655   1.000
    O297    O    0.27903   0.41431   0.62831   1.000
    O298    O    0.36168   0.40891   0.63477   1.000
    O299    O    0.28180   0.49736   0.64421   1.000
    O300    O    0.43728   0.12867   0.68050   1.000
    O301    O    0.44405   0.40717   0.64186   1.000
    O302    O    0.51401   0.40017   0.64750   1.000
    O303    O    0.43947   0.47910   0.65475   1.000
    O304    O    0.32022   0.60957   0.70335   1.000
    O305    O    0.11691   0.60741   0.71475   1.000
    O306    O    0.94103   0.58876   0.71199   1.000
    O307    O    0.37491   0.82602   0.71940   1.000
    O308    O    0.34595   0.72535   0.72210   1.000
    O309    O    0.39444   0.91444   0.72534   1.000
    O310    O    0.40790   0.00526   0.73081   1.000
    O311    O    0.42330   0.09460   0.73862   1.000
    O312    O    0.43821   0.17340   0.74122   1.000
    O313    O    0.82695   0.56232   0.75868   1.000
    O314    O    0.39213   0.88287   0.78490   1.000
    O315    O    0.90561   0.57703   0.76124   1.000
    O316    O    0.99481   0.59220   0.76901   1.000
    O317    O    0.27434   0.65372   0.77757   1.000
    O318    O    0.39005   0.67923   0.79614   1.000
    O319    O    0.08546   0.60538   0.77440   1.000
    O320    O    0.17376   0.62479   0.78032   1.000
    O321    O    0.41151   0.05915   0.78787   1.000
    O322    O    0.87155   0.56306   0.81936   1.000
    O323    O    0.05044   0.59499   0.83549   1.000
    O324    O    0.46168   0.90930   0.87329   1.000
    O325    O    0.78359   0.35400   0.85338   1.000
    O326    O    0.52088   0.56006   0.84450   1.000
    O327    O    0.50219   0.71759   0.85512   1.000
    O328    O    0.60004   0.48577   0.85194   1.000
    O329    O    0.59286   0.55567   0.85749   1.000
    O330    O    0.59091   0.63800   0.86451   1.000
    O331    O    0.67752   0.55764   0.87297   1.000
    O332    O    0.83537   0.54548   0.87692   1.000
    O333    O    0.92704   0.56537   0.88573   1.000
    O334    O    0.72050   0.22408   0.87980   1.000
    O335    O    0.58528   0.72059   0.87096   1.000
    O336    O    0.57795   0.79864   0.87848   1.000
    O337    O    0.67350   0.72219   0.88633   1.000
    O338    O    0.74050   0.30522   0.88621   1.000
    O339    O    0.75851   0.39590   0.89655   1.000
    O340    O    0.01673   0.58213   0.89410   1.000
    O341    O    0.09568   0.59767   0.89672   1.000
    O342    O    0.76308   0.55930   0.88945   1.000
    O343    O    0.76052   0.64201   0.89498   1.000
    O344    O    0.56431   0.88738   0.90520   1.000
    O345    O    0.77308   0.48616   0.90466   1.000
    O346    O    0.68879   0.25429   0.92386   1.000
    O347    O    0.75846   0.72423   0.90133   1.000
    O348    O    0.75031   0.79394   0.90616   1.000
    O349    O    0.83085   0.72013   0.91389   1.000
    O350    O    0.98111   0.56969   0.94320   1.000
    O351    O    0.72788   0.43683   0.94692   1.000
    O352    O    0.57686   0.00057   0.93289   1.000
    O353    O    0.61482   0.11183   0.95511   1.000
    O354    O    0.63085   0.19873   0.95890   1.000
    O355    O    0.65682   0.29466   0.97300   1.000
    O356    O    0.56382   0.14149   0.98003   1.000
    O357    O    0.67790   0.38652   0.98571   1.000
loop_
    _geom_bond_atom_site_label_1
    _geom_bond_atom_site_label_2
    _geom_bond_distance
    _geom_bond_site_symmetry_2
    _ccdc_geom_bond_type
    C158   O166      0.63997      .   S
    C110   O166      0.63997      .   S
    C158   O167      0.97805  1_554   S
    C0     O167      0.97805      .   S
    C112   O168      0.69328      .   S
    C113   O168      0.69328      .   S
    C112   O169      0.70269      .   S
    C111   O169      0.70269      .   S
    C112   O170      0.54376  1_554   S
    C38    O170      0.54376      .   S
    C15    O171      0.54451  1_554   S
    C71    O171      0.54451      .   S
    C113   O172      0.70436      .   S
    C114   O172      0.70436      .   S
    C113   O173      0.54438      .   S
    C39    O173      0.54438  1_556   S
    C35    O174      0.54483      .   S
    C106   O174      0.54483      .   S
    C110   O175      0.74078      .   S
    C111   O175      0.74078      .   S
    C110   O176      0.64006      .   S
    C159   O176      0.64006      .   S
    C14    O177      0.54419      .   S
    C70    O177      0.54419  1_556   S
    C111   O178      0.70183      .   S
    C116   O178      0.70183      .   S
    C159   O179      0.98260      .   S
    C2     O179      0.98260  1_545   S
    C32    O180      0.54483      .   S
    C101   O180      0.54483      .   S
    C2     O181      0.99186      .   S
    C155   O181      0.99186      .   S
    C2     O182      0.99813      .   S
    C163   O182      0.99813      .   S
    C2     O183      0.97805      .   S
    C146   O183      0.97805  1_556   S
    C114   O184      0.70748      .   S
    C140   O184      0.70748      .   S
    C114   O185      0.70420      .   S
    C115   O185      0.70420      .   S
    C34    O186      0.54420      .   S
    C105   O186      0.54420      .   S
    C33    O187      0.54474      .   S
    C102   O187      0.54474      .   S
    C106   O188      0.69486  1_455   S
    C105   O188      0.69486      .   S
    C106   O189      0.70194      .   S
    C107   O189      0.70194      .   S
    C101   O190      0.69557      .   S
    C102   O190      0.69557      .   S
    C101   O191      0.70411      .   S
    C100   O191      0.70411      .   S
    C102   O192      0.70260      .   S
    C97    O192      0.70260      .   S
    C116   O193      0.69522      .   S
    C115   O193      0.69522      .   S
    C116   O194      0.54479      .   S
    C41    O194      0.54479      .   S
    C140   O195      0.70883      .   S
    C100   O195      0.70883      .   S
    C140   O196      0.71267      .   S
    C107   O196      0.71267      .   S
    C155   O197      0.64078      .   S
    C96    O197      0.64078      .   S
    C100   O198      0.70294      .   S
    C99    O198      0.70294      .   S
    C105   O199      0.70259      .   S
    C104   O199      0.70259      .   S
    C115   O200      0.54426      .   S
    C40    O200      0.54426      .   S
    C97    O201      0.74262      .   S
    C96    O201      0.74262      .   S
    C97    O202      0.70187      .   S
    C98    O202      0.70187      .   S
    C96    O203      0.63968      .   S
    C154   O203      0.63968      .   S
    C107   O204      0.70158      .   S
    C108   O204      0.70158      .   S
    C99    O205      0.69247      .   S
    C98    O205      0.69247      .   S
    C99    O206      0.54384      .   S
    C31    O206      0.54384      .   S
    C98    O207      0.54395      .   S
    C30    O207      0.54395      .   S
    C154   O208      0.99491      .   S
    C5     O208      0.99491      .   S
    C163   O209      0.64050      .   S
    C124   O209      0.64050      .   S
    C49    O210      0.54449      .   S
    C130   O210      0.54449      .   S
    C156   O211      0.64008      .   S
    C103   O211      0.64008      .   S
    C156   O212      0.98654      .   S
    C5     O212      0.98654      .   S
    C104   O213      0.74235      .   S
    C103   O213      0.74235      .   S
    C104   O214      0.70206  1_655   S
    C109   O214      0.70206      .   S
    C108   O215      0.69477      .   S
    C109   O215      0.69477      .   S
    C108   O216      0.54470      .   S
    C36    O216      0.54470      .   S
    C48    O217      0.54468      .   S
    C129   O217      0.54468      .   S
    C130   O218      0.69479      .   S
    C129   O218      0.69479      .   S
    C130   O219      0.70196      .   S
    C125   O219      0.70196  1_545   S
    C103   O220      0.64116      .   S
    C157   O220      0.64116      .   S
    C5     O221      0.98684      .   S
    C162   O221      0.98684      .   S
    C5     O222      0.99465      .   S
    C160   O222      0.99465      .   S
    C109   O223      0.54457      .   S
    C37    O223      0.54457      .   S
    C124   O224      0.74282      .   S
    C125   O224      0.74282      .   S
    C124   O225      0.64023      .   S
    C162   O225      0.64023      .   S
    C129   O226      0.70152      .   S
    C128   O226      0.70152      .   S
    C125   O227      0.70260      .   S
    C126   O227      0.70260      .   S
    C157   O228      0.99870      .   S
    C3     O228      0.99870      .   S
    C52    O229      0.54433      .   S
    C136   O229      0.54433      .   S
    C42    O230      0.54396      .   S
    C119   O230      0.54396      .   S
    C160   O231      0.63960      .   S
    C117   O231      0.63960      .   S
    C43    O232      0.54385      .   S
    C120   O232      0.54385      .   S
    C119   O233      0.69246      .   S
    C120   O233      0.69246      .   S
    C119   O234      0.70187      .   S
    C118   O234      0.70187      .   S
    C120   O235      0.70293      .   S
    C121   O235      0.70293      .   S
    C128   O236      0.71274      .   S
    C141   O236      0.71274      .   S
    C128   O237      0.70189      .   S
    C127   O237      0.70189      .   S
    C53    O238      0.54479      .   S
    C137   O238      0.54479      .   S
    C117   O239      0.74259      .   S
    C118   O239      0.74259      .   S
    C117   O240      0.64080      .   S
    C161   O240      0.64080      .   S
    C118   O241      0.70262      .   S
    C123   O241      0.70262      .   S
    C136   O242      0.69513      .   S
    C137   O242      0.69513      .   S
    C136   O243      0.70421      .   S
    C135   O243      0.70421      .   S
    C126   O244      0.69468      .   S
    C127   O244      0.69468  1_565   S
    C126   O245      0.54417      .   S
    C46    O245      0.54417      .   S
    C121   O246      0.70877      .   S
    C141   O246      0.70877      .   S
    C121   O247      0.70410      .   S
    C122   O247      0.70410      .   S
    C161   O248      0.99185      .   S
    C3     O248      0.99185      .   S
    C141   O249      0.70731      .   S
    C135   O249      0.70731      .   S
    C137   O250      0.70163      .   S
    C132   O250      0.70163      .   S
    C123   O251      0.69557      .   S
    C122   O251      0.69557      .   S
    C123   O252      0.54469      .   S
    C45    O252      0.54469      .   S
    C122   O253      0.54483      .   S
    C44    O253      0.54483      .   S
    C127   O254      0.54484      .   S
    C47    O254      0.54484      .   S
    C135   O255      0.70434      .   S
    C134   O255      0.70434      .   S
    C3     O256      0.98246  1_655   S
    C165   O256      0.98246      .   S
    C3     O257      0.97786      .   S
    C152   O257      0.97786      .   S
    C165   O258      0.64007      .   S
    C131   O258      0.64007      .   S
    C132   O259      0.74070      .   S
    C131   O259      0.74070      .   S
    C132   O260      0.70259      .   S
    C133   O260      0.70259      .   S
    C26    O261      0.54379      .   S
    C91    O261      0.54379      .   S
    C131   O262      0.63997      .   S
    C164   O262      0.63997      .   S
    C134   O263      0.69300      .   S
    C133   O263      0.69300      .   S
    C134   O264      0.54440      .   S
    C51    O264      0.54440      .   S
    C27    O265      0.54440      .   S
    C92    O265      0.54440      .   S
    C133   O266      0.54416      .   S
    C50    O266      0.54416      .   S
    C164   O267      0.97778      .   S
    C1     O267      0.97778      .   S
    C152   O268      0.63992      .   S
    C89    O268      0.63992      .   S
    C91    O269      0.69323      .   S
    C92    O269      0.69323      .   S
    C91    O270      0.70275      .   S
    C90    O270      0.70275      .   S
    C92    O271      0.70441      .   S
    C93    O271      0.70441      .   S
    C23    O272      0.54500      .   S
    C85    O272      0.54500      .   S
    C89    O273      0.74075      .   S
    C90    O273      0.74075      .   S
    C89    O274      0.64008      .   S
    C153   O274      0.64008      .   S
    C90    O275      0.70155      .   S
    C95    O275      0.70155      .   S
    C153   O276      0.98248      .   S
    C1     O276      0.98248  1_455   S
    C20    O277      0.54483      .   S
    C80    O277      0.54483      .   S
    C1     O278      0.99185      .   S
    C149   O278      0.99185      .   S
    C1     O279      0.99847      .   S
    C145   O279      0.99847      .   S
    C93    O280      0.70731      .   S
    C139   O280      0.70731      .   S
    C93    O281      0.70421      .   S
    C94    O281      0.70421      .   S
    C22    O282      0.54417      .   S
    C84    O282      0.54417      .   S
    C21    O283      0.54474      .   S
    C81    O283      0.54474      .   S
    C85    O284      0.69474  1_545   S
    C84    O284      0.69474      .   S
    C85    O285      0.70190      .   S
    C86    O285      0.70190      .   S
    C80    O286      0.69554      .   S
    C81    O286      0.69554      .   S
    C80    O287      0.70411      .   S
    C79    O287      0.70411      .   S
    C81    O288      0.70258      .   S
    C76    O288      0.70258      .   S
    C95    O289      0.69519      .   S
    C94    O289      0.69519      .   S
    C95    O290      0.54479      .   S
    C29    O290      0.54479      .   S
    C139   O291      0.70877      .   S
    C79    O291      0.70877      .   S
    C139   O292      0.71270      .   S
    C86    O292      0.71270      .   S
    C149   O293      0.64079      .   S
    C75    O293      0.64079      .   S
    C79    O294      0.70293      .   S
    C78    O294      0.70293      .   S
    C84    O295      0.70259      .   S
    C83    O295      0.70259      .   S
    C94    O296      0.54425      .   S
    C28    O296      0.54425      .   S
    C76    O297      0.74258      .   S
    C75    O297      0.74258      .   S
    C76    O298      0.70187      .   S
    C77    O298      0.70187      .   S
    C75    O299      0.63966      .   S
    C148   O299      0.63966      .   S
    C86    O300      0.70133      .   S
    C87    O300      0.70133      .   S
    C78    O301      0.69247      .   S
    C77    O301      0.69247      .   S
    C78    O302      0.54385      .   S
    C19    O302      0.54385      .   S
    C77    O303      0.54396      .   S
    C18    O303      0.54396      .   S
    C148   O304      0.99470      .   S
    C4     O304      0.99470      .   S
    C145   O305      0.64157      .   S
    C61    O305      0.64157      .   S
    C13    O306      0.54448      .   S
    C67    O306      0.54448      .   S
    C150   O307      0.63997      .   S
    C82    O307      0.63997      .   S
    C150   O308      0.98637      .   S
    C4     O308      0.98637      .   S
    C83    O309      0.74235      .   S
    C82    O309      0.74235      .   S
    C83    O310      0.70193  1_565   S
    C88    O310      0.70193      .   S
    C87    O311      0.69491      .   S
    C88    O311      0.69491      .   S
    C87    O312      0.54477      .   S
    C24    O312      0.54477      .   S
    C12    O313      0.54469      .   S
    C66    O313      0.54469      .   S
    C82    O314      0.64122      .   S
    C151   O314      0.64122      .   S
    C67    O315      0.69482      .   S
    C66    O315      0.69482      .   S
    C67    O316      0.70209      .   S
    C62    O316      0.70209  1_455   S
    C4     O317      0.98695      .   S
    C144   O317      0.98695      .   S
    C4     O318      0.99523      .   S
    C142   O318      0.99523      .   S
    C61    O319      0.74241      .   S
    C62    O319      0.74241      .   S
    C61    O320      0.64008      .   S
    C144   O320      0.64008      .   S
    C88    O321      0.54457      .   S
    C25    O321      0.54457      .   S
    C66    O322      0.70150      .   S
    C65    O322      0.70150      .   S
    C62    O323      0.70259      .   S
    C63    O323      0.70259      .   S
    C151   O324      0.99809      .   S
    C0     O324      0.99809      .   S
    C16    O325      0.54426      .   S
    C73    O325      0.54426      .   S
    C6     O326      0.54395      .   S
    C56    O326      0.54395      .   S
    C142   O327      0.63968      .   S
    C54    O327      0.63968      .   S
    C7     O328      0.54385      .   S
    C57    O328      0.54385      .   S
    C56    O329      0.69247      .   S
    C57    O329      0.69247      .   S
    C56    O330      0.70187      .   S
    C55    O330      0.70187      .   S
    C57    O331      0.70294      .   S
    C58    O331      0.70294      .   S
    C65    O332      0.71272      .   S
    C138   O332      0.71272      .   S
    C65    O333      0.70197      .   S
    C64    O333      0.70197      .   S
    C17    O334      0.54479      .   S
    C74    O334      0.54479      .   S
    C54    O335      0.74262      .   S
    C55    O335      0.74262      .   S
    C54    O336      0.64078      .   S
    C143   O336      0.64078      .   S
    C55    O337      0.70260      .   S
    C60    O337      0.70260      .   S
    C73    O338      0.69522      .   S
    C74    O338      0.69522      .   S
    C73    O339      0.70417      .   S
    C72    O339      0.70417      .   S
    C63    O340      0.69487      .   S
    C64    O340      0.69487  1_655   S
    C63    O341      0.54417      .   S
    C10    O341      0.54417      .   S
    C58    O342      0.70883      .   S
    C138   O342      0.70883      .   S
    C58    O343      0.70411      .   S
    C59    O343      0.70411      .   S
    C143   O344      0.99185      .   S
    C0     O344      0.99185      .   S
    C138   O345      0.70743      .   S
    C72    O345      0.70743      .   S
    C74    O346      0.70162      .   S
    C69    O346      0.70162      .   S
    C60    O347      0.69557      .   S
    C59    O347      0.69557      .   S
    C60    O348      0.54475      .   S
    C9     O348      0.54475      .   S
    C59    O349      0.54482      .   S
    C8     O349      0.54482      .   S
    C64    O350      0.54483      .   S
    C11    O350      0.54483      .   S
    C72    O351      0.70407      .   S
    C71    O351      0.70407      .   S
    C0     O352      0.98258  1_565   S
    C147   O352      0.98258      .   S
    C147   O353      0.64006      .   S
    C68    O353      0.64006      .   S
    C69    O354      0.74091      .   S
    C68    O354      0.74091      .   S
    C69    O355      0.70260      .   S
    C70    O355      0.70260      .   S
    C68    O356      0.63992      .   S
    C146   O356      0.63992      .   S
    C71    O357      0.69324      .   S
    C70    O357      0.69324      .   S
