# CIF file generated by openbabel 2.4.90, see http://openbabel.sf.net
data_I
_chemical_name_common ''
_cell_length_a 14.828
_cell_length_b 14.816
_cell_length_c 16.775
_cell_angle_alpha 102.675
_cell_angle_beta 102.684
_cell_angle_gamma 115.839
_space_group_name_H-M_alt 'P 1'
_space_group_name_Hall 'P 1'
loop_
    _symmetry_equiv_pos_as_xyz
    x,y,z
loop_
    _atom_site_label
    _atom_site_type_symbol
    _atom_site_fract_x
    _atom_site_fract_y
    _atom_site_fract_z
    _atom_site_occupancy
    Zr0     Zr   0.52590   0.92493   0.92119   1.000
    Zr1     Zr   0.07463   0.47341   0.57820   1.000
    Zr2     Zr   0.47409   0.07509   0.07879   1.000
    Zr3     Zr   0.92537   0.52661   0.42178   1.000
    Zr4     Zr   0.32889   0.67073   0.74980   1.000
    Zr5     Zr   0.67111   0.32929   0.25011   1.000
    N6      N    0.48308   0.22342   0.62328   1.000
    O7      O    0.24108   0.32298   0.59496   1.000
    O8      O    0.41452   0.97439   0.67269   1.000
    O9      O    0.40165   0.41650   0.66331   1.000
    O10     O    0.29764   0.32919   0.60868   1.000
    O11     O    0.68914   0.36203   0.54360   1.000
    O12     O    0.47238   0.06636   0.74829   1.000
    N13     N    0.77657   0.51694   0.87645   1.000
    O14     O    0.67672   0.75875   0.90467   1.000
    O15     O    0.93347   0.52731   0.75132   1.000
    O16     O    0.63826   0.31112   0.95653   1.000
    O17     O    0.02546   0.58533   0.82701   1.000
    O18     O    0.58331   0.59808   0.83629   1.000
    O19     O    0.67044   0.70216   0.89082   1.000
    N20     N    0.22342   0.48309   0.12353   1.000
    O21     O    0.36173   0.68890   0.04345   1.000
    O22     O    0.32328   0.24127   0.09531   1.000
    O23     O    0.41669   0.40194   0.16367   1.000
    O24     O    0.32955   0.29787   0.10916   1.000
    O25     O    0.06653   0.47271   0.24864   1.000
    O26     O    0.97454   0.41469   0.17295   1.000
    N27     N    0.51691   0.77660   0.37670   1.000
    O28     O    0.52762   0.93366   0.25170   1.000
    O29     O    0.31086   0.63799   0.45638   1.000
    O30     O    0.75892   0.67705   0.40503   1.000
    O31     O    0.59835   0.58353   0.33663   1.000
    O32     O    0.58548   0.02564   0.32728   1.000
    O33     O    0.70236   0.67083   0.39130   1.000
loop_
    _geom_bond_atom_site_label_1
    _geom_bond_atom_site_label_2
    _geom_bond_distance
    _geom_bond_site_symmetry_2
    _ccdc_geom_bond_type
    N6     O7        4.41032      .   S
    Zr1    O7        3.98798      .   S
    N6     O8        3.71175  1_545   S
    Zr4    O8        4.67138      .   S
    N6     O9        3.55188      .   S
    Zr4    O9        4.39192      .   S
    N6     O10       3.70217      .   S
    Zr1    O10       4.65382      .   S
    N6     O11       3.58713      .   S
    Zr3    O11       4.50293      .   S
    N6     O12       3.43562      .   S
    Zr0    O12       4.06681  1_565   S
    N13    O14       4.40911      .   S
    Zr0    O14       3.98899      .   S
    N13    O15       3.43737      .   S
    Zr1    O15       4.06964  1_455   S
    N13    O16       3.58686      .   S
    Zr2    O16       4.50342  1_554   S
    N13    O17       3.71309  1_655   S
    Zr4    O17       4.67310      .   S
    N13    O18       3.55279      .   S
    Zr4    O18       4.39513      .   S
    N13    O19       3.70220      .   S
    Zr0    O19       4.65351      .   S
    N20    O21       3.58687      .   S
    Zr0    O21       4.50343  1_556   S
    N20    O22       4.40911      .   S
    Zr2    O22       3.98901      .   S
    N20    O23       3.55276      .   S
    Zr5    O23       4.39496      .   S
    N20    O24       3.70220      .   S
    Zr2    O24       4.65353      .   S
    N20    O25       3.43720      .   S
    Zr3    O25       4.06980  1_655   S
    N20    O26       3.71294  1_455   S
    Zr5    O26       4.67261      .   S
    N27    O28       3.43557      .   S
    Zr2    O28       4.06682  1_545   S
    N27    O29       3.58717      .   S
    Zr1    O29       4.50291      .   S
    N27    O30       4.41031      .   S
    Zr3    O30       3.98797      .   S
    N27    O31       3.55193      .   S
    Zr5    O31       4.39203      .   S
    N27    O32       3.71186  1_565   S
    Zr5    O32       4.67187      .   S
    N27    O33       3.70217      .   S
    Zr3    O33       4.65381      .   S
