# CIF file generated by openbabel 2.4.90, see http://openbabel.sf.net
data_I
_chemical_name_common 'VESTA_phase_1'
_cell_length_a 15.254
_cell_length_b 13.761
_cell_length_c 22.276
_cell_angle_alpha 89.97
_cell_angle_beta 90.024
_cell_angle_gamma 90.154
_space_group_name_H-M_alt 'P 1'
_space_group_name_Hall 'P 1'
loop_
    _symmetry_equiv_pos_as_xyz
    x,y,z
loop_
    _atom_site_label
    _atom_site_type_symbol
    _atom_site_fract_x
    _atom_site_fract_y
    _atom_site_fract_z
    _atom_site_occupancy
    Cd0     Cd   0.46591   0.83145   0.80083   1.000
    Cd1     Cd   0.96592   0.83145   0.80083   1.000
    Cd2     Cd   0.03396   0.66917   0.30136   1.000
    Cd3     Cd   0.53395   0.66917   0.30136   1.000
    Cd4     Cd   0.03409   0.16853   0.19918   1.000
    Cd5     Cd   0.53409   0.16852   0.19918   1.000
    Cd6     Cd   0.46601   0.33081   0.69864   1.000
    Cd7     Cd   0.96604   0.33082   0.69860   1.000
    Ni8     Ni   0.21705   0.58110   0.76745   1.000
    Ni9     Ni   0.71706   0.58110   0.76740   1.000
    Ni10    Ni   0.28309   0.91933   0.26956   1.000
    Ni11    Ni   0.78309   0.91933   0.26956   1.000
    Ni12    Ni   0.28294   0.41888   0.23255   1.000
    Ni13    Ni   0.78294   0.41890   0.23254   1.000
    Ni14    Ni   0.21690   0.08065   0.73043   1.000
    Ni15    Ni   0.71692   0.08068   0.73047   1.000
    H16     H    0.48684   0.84464   0.67086   1.000
    H17     H    0.98685   0.84464   0.67086   1.000
    H18     H    0.05910   0.77100   0.70190   1.000
    H19     H    0.55911   0.77101   0.70190   1.000
    H20     H    0.37481   0.72464   0.67260   1.000
    H21     H    0.87481   0.72465   0.67260   1.000
    H22     H    0.44198   0.64887   0.71647   1.000
    H23     H    0.94198   0.64887   0.71647   1.000
    H24     H    0.04438   0.62248   0.63352   1.000
    H25     H    0.54439   0.62248   0.63352   1.000
    H26     H    0.43662   0.58435   0.61793   1.000
    H27     H    0.93663   0.58436   0.61793   1.000
    H28     H    0.02257   0.77063   0.56836   1.000
    H29     H    0.52258   0.77063   0.56836   1.000
    H30     H    0.41252   0.73598   0.55554   1.000
    H31     H    0.91253   0.73598   0.55554   1.000
    H32     H    0.46368   0.57867   0.51070   1.000
    H33     H    0.96369   0.57867   0.51071   1.000
    H34     H    0.07366   0.61272   0.52328   1.000
    H35     H    0.57366   0.61272   0.52328   1.000
    H36     H    0.44594   0.71925   0.43875   1.000
    H37     H    0.94595   0.71925   0.43875   1.000
    H38     H    0.05677   0.75098   0.44976   1.000
    H39     H    0.55678   0.75098   0.44976   1.000
    H40     H    0.50495   0.93858   0.90342   1.000
    H41     H    0.00000   0.93858   0.90341   1.000
    H42     H    0.40218   0.90458   0.91052   1.000
    H43     H    0.90217   0.90457   0.91052   1.000
    H44     H    0.01089   0.65660   0.17160   1.000
    H45     H    0.51089   0.65661   0.17160   1.000
    H46     H    0.44078   0.73240   0.20280   1.000
    H47     H    0.94079   0.73240   0.20288   1.000
    H48     H    0.12560   0.77374   0.17236   1.000
    H49     H    0.62561   0.77374   0.17236   1.000
    H50     H    0.06033   0.85169   0.21605   1.000
    H51     H    0.56034   0.85169   0.21605   1.000
    H52     H    0.45745   0.87891   0.13323   1.000
    H53     H    0.95746   0.87891   0.13323   1.000
    H54     H    0.06563   0.91519   0.11733   1.000
    H55     H    0.56564   0.91519   0.11730   1.000
    H56     H    0.47723   0.72983   0.06852   1.000
    H57     H    0.97723   0.72983   0.06852   1.000
    H58     H    0.08754   0.76299   0.05535   1.000
    H59     H    0.58756   0.76299   0.05535   1.000
    H60     H    0.03751   0.92088   0.01027   1.000
    H61     H    0.53753   0.92088   0.01027   1.000
    H62     H    0.42736   0.88776   0.02291   1.000
    H63     H    0.92735   0.88776   0.02291   1.000
    H64     H    0.05425   0.78003   0.93852   1.000
    H65     H    0.55427   0.78003   0.93852   1.000
    H66     H    0.44327   0.74907   0.94965   1.000
    H67     H    0.94327   0.74907   0.94960   1.000
    H68     H    0.99601   0.56098   0.40387   1.000
    H69     H    0.49600   0.56098   0.40387   1.000
    H70     H    0.09865   0.59570   0.41080   1.000
    H71     H    0.59865   0.59569   0.41080   1.000
    H72     H    0.01317   0.15534   0.32915   1.000
    H73     H    0.51317   0.15534   0.32910   1.000
    H74     H    0.44090   0.22898   0.29811   1.000
    H75     H    0.94092   0.22898   0.29811   1.000
    H76     H    0.12520   0.27534   0.32740   1.000
    H77     H    0.62520   0.27535   0.32740   1.000
    H78     H    0.05803   0.35112   0.28353   1.000
    H79     H    0.55803   0.35112   0.28353   1.000
    H80     H    0.45562   0.37752   0.36648   1.000
    H81     H    0.95564   0.37752   0.36648   1.000
    H82     H    0.06339   0.41564   0.38207   1.000
    H83     H    0.56339   0.41564   0.38207   1.000
    H84     H    0.47743   0.22936   0.43164   1.000
    H85     H    0.97745   0.22936   0.43164   1.000
    H86     H    0.08749   0.26401   0.44446   1.000
    H87     H    0.58749   0.26401   0.44446   1.000
    H88     H    0.03633   0.42132   0.48929   1.000
    H89     H    0.53634   0.42132   0.48929   1.000
    H90     H    0.42635   0.38728   0.47672   1.000
    H91     H    0.92636   0.38728   0.47672   1.000
    H92     H    0.05406   0.28074   0.56125   1.000
    H93     H    0.55407   0.28074   0.56125   1.000
    H94     H    0.44323   0.24901   0.55024   1.000
    H95     H    0.94324   0.24901   0.55024   1.000
    H96     H    0.99503   0.06141   0.09659   1.000
    H97     H    0.49504   0.06141   0.09659   1.000
    H98     H    0.09781   0.09540   0.08949   1.000
    H99     H    0.59781   0.09541   0.08949   1.000
    H100    H    0.48909   0.34339   0.82840   1.000
    H101    H    0.98910   0.34339   0.82840   1.000
    H102    H    0.05920   0.26759   0.79713   1.000
    H103    H    0.55921   0.26760   0.79713   1.000
    H104    H    0.37438   0.22624   0.82765   1.000
    H105    H    0.87438   0.22626   0.82765   1.000
    H106    H    0.43966   0.14830   0.78396   1.000
    H107    H    0.93965   0.14830   0.78396   1.000
    H108    H    0.04253   0.12108   0.86670   1.000
    H109    H    0.54256   0.12109   0.86678   1.000
    H110    H    0.43437   0.08480   0.88267   1.000
    H111    H    0.93436   0.08481   0.88268   1.000
    H112    H    0.02276   0.27016   0.93149   1.000
    H113    H    0.52277   0.27017   0.93149   1.000
    H114    H    0.41244   0.23700   0.94460   1.000
    H115    H    0.91245   0.23701   0.94466   1.000
    H116    H    0.46247   0.07911   0.98973   1.000
    H117    H    0.96247   0.07912   0.98974   1.000
    H118    H    0.07263   0.11223   0.97710   1.000
    H119    H    0.57265   0.11224   0.97710   1.000
    H120    H    0.44573   0.21996   0.06149   1.000
    H121    H    0.94575   0.21997   0.06149   1.000
    H122    H    0.05673   0.25091   0.05036   1.000
    H123    H    0.55673   0.25092   0.05037   1.000
    H124    H    0.50400   0.43901   0.59614   1.000
    H125    H    0.00000   0.43901   0.59614   1.000
    H126    H    0.40136   0.40430   0.58917   1.000
    H127    H    0.90136   0.40429   0.58918   1.000
    C128    C    0.30096   0.66300   0.79896   1.000
    C129    C    0.80096   0.66300   0.79890   1.000
    C130    C    0.30332   0.00000   0.76070   1.000
    C131    C    0.80335   0.00000   0.76060   1.000
    C132    C    0.13211   0.00000   0.76428   1.000
    C133    C    0.63208   0.00000   0.76420   1.000
    C134    C    0.13132   0.16043   0.69963   1.000
    C135    C    0.63132   0.16041   0.69962   1.000
    C136    C    0.44299   0.70114   0.67929   1.000
    C137    C    0.94299   0.70114   0.67929   1.000
    C138    C    0.97789   0.64962   0.62369   1.000
    C139    C    0.47790   0.64962   0.62369   1.000
    C140    C    0.47858   0.70713   0.56480   1.000
    C141    C    0.97859   0.70713   0.56487   1.000
    C142    C    0.00801   0.64214   0.51290   1.000
    C143    C    0.50801   0.64214   0.51294   1.000
    C144    C    0.01040   0.68968   0.45102   1.000
    C145    C    0.51041   0.68967   0.45102   1.000
    C146    C    0.19895   0.83755   0.30077   1.000
    C147    C    0.69896   0.83755   0.30078   1.000
    C148    C    0.19637   0.49912   0.26199   1.000
    C149    C    0.69637   0.49911   0.26200   1.000
    C150    C    0.36763   0.49823   0.26568   1.000
    C151    C    0.86765   0.49820   0.26560   1.000
    C152    C    0.36858   0.33915   0.20170   1.000
    C153    C    0.86859   0.33914   0.20178   1.000
    C154    C    0.05796   0.79897   0.17917   1.000
    C155    C    0.55797   0.79897   0.17917   1.000
    C156    C    0.52353   0.85063   0.12339   1.000
    C157    C    0.00000   0.85062   0.12339   1.000
    C158    C    0.02184   0.79275   0.06473   1.000
    C159    C    0.52186   0.79275   0.06474   1.000
    C160    C    0.49279   0.85777   0.01263   1.000
    C161    C    0.99279   0.85777   0.01262   1.000
    C162    C    0.48998   0.81006   0.95070   1.000
    C163    C    0.98998   0.81006   0.95077   1.000
    C164    C    0.19904   0.33699   0.20104   1.000
    C165    C    0.69904   0.33698   0.20105   1.000
    C166    C    0.19666   0.99912   0.23930   1.000
    C167    C    0.69667   0.99912   0.23929   1.000
    C168    C    0.36790   0.99786   0.23576   1.000
    C169    C    0.86791   0.99788   0.23578   1.000
    C170    C    0.36866   0.83958   0.30040   1.000
    C171    C    0.86869   0.83957   0.30036   1.000
    C172    C    0.05702   0.29885   0.32071   1.000
    C173    C    0.55702   0.29885   0.32071   1.000
    C174    C    0.52211   0.35037   0.37631   1.000
    C175    C    0.00000   0.35037   0.37630   1.000
    C176    C    0.02143   0.29287   0.43513   1.000
    C177    C    0.52143   0.29286   0.43513   1.000
    C178    C    0.49200   0.35786   0.48707   1.000
    C179    C    0.99201   0.35786   0.48707   1.000
    C180    C    0.48960   0.31031   0.54898   1.000
    C181    C    0.98961   0.31031   0.54898   1.000
    C182    C    0.30103   0.16242   0.69920   1.000
    C183    C    0.80102   0.16244   0.69923   1.000
    C184    C    0.30361   0.50089   0.73797   1.000
    C185    C    0.80363   0.50087   0.73800   1.000
    C186    C    0.13236   0.50178   0.73432   1.000
    C187    C    0.63238   0.50176   0.73431   1.000
    C188    C    0.13138   0.66083   0.79823   1.000
    C189    C    0.63141   0.66082   0.79824   1.000
    C190    C    0.44203   0.20102   0.82080   1.000
    C191    C    0.94202   0.20102   0.82084   1.000
    C192    C    0.97645   0.14937   0.87662   1.000
    C193    C    0.47647   0.14937   0.87662   1.000
    C194    C    0.47814   0.20725   0.93527   1.000
    C195    C    0.97815   0.20725   0.93527   1.000
    C196    C    0.00719   0.14223   0.98738   1.000
    C197    C    0.50721   0.14223   0.98738   1.000
    C198    C    0.01001   0.18993   0.04920   1.000
    C199    C    0.51001   0.18993   0.04924   1.000
    N200    N    0.35445   0.71674   0.81751   1.000
    N201    N    0.85444   0.71674   0.81751   1.000
    N202    N    0.35874   0.95034   0.77960   1.000
    N203    N    0.85878   0.95029   0.77950   1.000
    N204    N    0.07784   0.95326   0.78654   1.000
    N205    N    0.57789   0.95311   0.78640   1.000
    N206    N    0.07724   0.71250   0.81779   1.000
    N207    N    0.57727   0.71255   0.81774   1.000
    N208    N    0.49347   0.78705   0.69969   1.000
    N209    N    0.99348   0.78704   0.69969   1.000
    N210    N    0.46432   0.87899   0.90289   1.000
    N211    N    0.96432   0.87899   0.90289   1.000
    N212    N    0.14525   0.78365   0.31884   1.000
    N213    N    0.64526   0.78362   0.31880   1.000
    N214    N    0.14086   0.55021   0.28010   1.000
    N215    N    0.64087   0.55022   0.28017   1.000
    N216    N    0.42186   0.54798   0.28722   1.000
    N217    N    0.92187   0.54798   0.28721   1.000
    N218    N    0.42297   0.78768   0.31950   1.000
    N219    N    0.92299   0.78767   0.31954   1.000
    N220    N    0.00600   0.71458   0.20027   1.000
    N221    N    0.50600   0.71458   0.20028   1.000
    N222    N    0.03632   0.62081   0.40325   1.000
    N223    N    0.53632   0.62081   0.40325   1.000
    N224    N    0.14557   0.28322   0.18250   1.000
    N225    N    0.64556   0.28324   0.18250   1.000
    N226    N    0.14127   0.04963   0.22028   1.000
    N227    N    0.64124   0.04963   0.22033   1.000
    N228    N    0.42218   0.04675   0.21352   1.000
    N229    N    0.92214   0.04680   0.21353   1.000
    N230    N    0.42274   0.28742   0.18229   1.000
    N231    N    0.92273   0.28742   0.18228   1.000
    N232    N    0.00653   0.21294   0.30032   1.000
    N233    N    0.50653   0.21294   0.30032   1.000
    N234    N    0.03566   0.12099   0.09712   1.000
    N235    N    0.53567   0.12099   0.09712   1.000
    N236    N    0.35477   0.21626   0.68112   1.000
    N237    N    0.85476   0.21634   0.68122   1.000
    N238    N    0.35910   0.44978   0.71979   1.000
    N239    N    0.85912   0.44977   0.71981   1.000
    N240    N    0.07812   0.45203   0.71279   1.000
    N241    N    0.57812   0.45201   0.71280   1.000
    N242    N    0.07702   0.21233   0.68046   1.000
    N243    N    0.57703   0.21239   0.68052   1.000
    N244    N    0.49398   0.28542   0.79973   1.000
    N245    N    0.99399   0.28541   0.79973   1.000
    N246    N    0.46368   0.37917   0.59675   1.000
    N247    N    0.96369   0.37917   0.59675   1.000
loop_
    _geom_bond_atom_site_label_1
    _geom_bond_atom_site_label_2
    _geom_bond_distance
    _geom_bond_site_symmetry_2
    _ccdc_geom_bond_type
    H61    C160      1.10433      .   S
    H60    C161      1.10411  1_455   S
    C161   H63       1.10533      .   S
    C161   C158      1.53138  1_655   S
    C161   C163      1.52707  1_554   S
    C160   H62       1.10530      .   S
    C160   C159      1.53142      .   S
    C160   C162      1.52865  1_554   S
    C198   H122      1.09982      .   S
    C198   H121      1.09961  1_455   S
    C198   N234      1.48093      .   S
    C198   C196      1.52640  1_554   S
    C199   H123      1.09979      .   S
    C199   H120      1.09970      .   S
    C199   N235      1.48031      .   S
    C199   C197      1.52722  1_554   S
    H59    C159      1.10375      .   S
    H58    C158      1.10372      .   S
    C158   H57       1.10302  1_455   S
    C158   C157      1.56707      .   S
    C159   H56       1.10322      .   S
    C159   C156      1.53066      .   S
    H99    N235      1.02638      .   S
    H98    N234      1.02637      .   S
    H96    N234      1.02657  1_655   S
    H97    N235      1.02657      .   S
    N234   Cd4       2.36619      .   S
    N235   Cd5       2.36617      .   S
    H55    C156      1.10324      .   S
    H54    C157      1.34344      .   S
    C156   H52       1.10369      .   S
    C156   C155      1.52504      .   S
    C157   H53       0.78886  1_455   S
    C157   C154      1.68301      .   S
    H45    N221      1.02521      .   S
    H44    N220      1.02509      .   S
    H49    C155      1.10010      .   S
    H48    C154      1.10009      .   S
    C155   N221      1.48084      .   S
    C155   H51       1.09686      .   S
    C154   N220      1.48078      .   S
    C154   H50       1.09683      .   S
    N231   Cd4       2.39115  1_655   S
    N231   C153      1.17526      .   S
    N230   Cd5       2.39116      .   S
    N230   C152      1.17473      .   S
    N225   Cd5       2.34664      .   S
    N225   C165      1.17470      .   S
    N224   Cd4       2.34662      .   S
    N224   C164      1.17475      .   S
    Cd5    N228      2.41016      .   S
    Cd5    N227      2.36286      .   S
    Cd5    N233      2.37274      .   S
    Cd4    N229      2.41003  1_455   S
    Cd4    N226      2.36300      .   S
    Cd4    N232      2.37272      .   S
    N220   H47       1.02672  1_455   S
    N220   Cd2       2.37541      .   S
    N221   H46       1.02693      .   S
    N221   Cd3       2.37516      .   S
    C164   Ni12      1.84199      .   S
    C165   Ni13      1.84201      .   S
    C152   Ni12      1.84174      .   S
    C153   Ni13      1.84119      .   S
    N228   C168      1.17503  1_545   S
    N229   C169      1.17494  1_545   S
    N226   C166      1.17430  1_545   S
    N227   C167      1.17431  1_545   S
    Ni13   C149      1.84461      .   S
    Ni13   C151      1.84267      .   S
    Ni12   C148      1.84457      .   S
    Ni12   C150      1.84346      .   S
    C168   Ni10      1.84411      .   S
    C169   Ni11      1.84412      .   S
    C167   Ni11      1.84508      .   S
    C166   Ni10      1.84518      .   S
    C148   N214      1.17369      .   S
    C149   N215      1.17427      .   S
    C151   N217      1.17560      .   S
    C150   N216      1.17479      .   S
    Ni10   C170      1.84014      .   S
    Ni10   C146      1.84099      .   S
    Ni11   C171      1.84021      .   S
    Ni11   C147      1.84101      .   S
    N214   Cd2       2.36204      .   S
    N215   Cd3       2.36170      .   S
    H78    C172      1.09671      .   S
    H79    C173      1.09674      .   S
    N217   Cd2       2.40595  1_655   S
    N216   Cd3       2.40603      .   S
    H74    N233      1.02697      .   S
    H75    N232      1.02664  1_655   S
    N232   C172      1.48072      .   S
    N232   H72       1.02504      .   S
    N233   C173      1.48071      .   S
    N233   H73       1.02430      .   S
    C171   N219      1.17516      .   S
    C170   N218      1.17475      .   S
    C146   N212      1.17462      .   S
    C147   N213      1.17450      .   S
    Cd2    N212      2.34550      .   S
    Cd2    N219      2.38852  1_455   S
    Cd2    N222      2.36519      .   S
    Cd3    N213      2.34519      .   S
    Cd3    N218      2.38851      .   S
    Cd3    N223      2.36521      .   S
    C172   H76       1.10004      .   S
    C172   C175      1.67263      .   S
    C173   H77       1.10004      .   S
    C173   C174      1.52438      .   S
    H81    C175      0.80402  1_655   S
    H80    C174      1.10359      .   S
    C175   H82       1.32422      .   S
    C175   C176      1.56534      .   S
    C174   H83       1.10307      .   S
    C174   C177      1.53036      .   S
    N222   H68       1.02648  1_455   S
    N222   H70       1.02624      .   S
    N222   C144      1.47990      .   S
    N223   H69       1.02649      .   S
    N223   H71       1.02625      .   S
    N223   C145      1.47988      .   S
    H84    C177      1.10322      .   S
    H85    C176      1.10302  1_655   S
    C176   H86       1.10372      .   S
    C176   C179      1.53090  1_455   S
    C177   H87       1.10372      .   S
    C177   C178      1.53095      .   S
    H36    C145      1.09970      .   S
    H37    C144      1.09939  1_655   S
    H39    C145      1.09982      .   S
    H38    C144      1.09982      .   S
    C145   C143      1.52668      .   S
    C144   C142      1.52588      .   S
    H91    C179      1.10532      .   S
    H90    C178      1.10533      .   S
    C178   H89       1.10427      .   S
    C178   C180      1.52652      .   S
    C179   H88       1.10407  1_655   S
    C179   C181      1.52657      .   S
    H32    C143      1.10428      .   S
    H33    C142      1.10405  1_655   S
    C142   H34       1.10548      .   S
    C142   C141      1.53138  1_455   S
    C143   H35       1.10529      .   S
    C143   C140      1.52960      .   S
    C181   H95       1.09982      .   S
    C181   H92       1.09937  1_655   S
    C181   N247      1.47991      .   S
    C180   H94       1.09982      .   S
    C180   H93       1.09969      .   S
    C180   N246      1.47988      .   S
    H31    C141      1.10371      .   S
    H30    C140      1.10342      .   S
    C140   H29       1.10333      .   S
    C140   C139      1.53171      .   S
    C141   H28       1.10303  1_655   S
    C141   C138      1.53036      .   S
    H126   N246      1.02633      .   S
    H127   N247      1.02632      .   S
    H125   N247      0.99124  1_455   S
    H124   N246      1.02649      .   S
    N246   Cd6       2.36520      .   S
    N247   Cd7       2.36431      .   S
    H26    C139      1.10307      .   S
    H27    C138      1.10287      .   S
    C138   H24       1.10357  1_655   S
    C138   C137      1.52430      .   S
    C139   H25       1.10359      .   S
    C139   C136      1.52437      .   S
    H16    N208      1.02505      .   S
    H17    N209      1.02509      .   S
    H21    C137      1.10002      .   S
    H20    C136      1.10004      .   S
    C136   N208      1.48073      .   S
    C136   H22       1.09677      .   S
    C137   N209      1.48074      .   S
    C137   H23       1.09677      .   S
    N242   Cd7       2.38830  1_455   S
    N242   C134      1.17521      .   S
    N243   Cd6       2.38808      .   S
    N243   C135      1.17515      .   S
    N236   Cd6       2.34573      .   S
    N236   C182      1.17460      .   S
    N237   Cd7       2.34496      .   S
    N237   C183      1.17458      .   S
    Cd7    N240      2.40616  1_655   S
    Cd7    N239      2.36188      .   S
    Cd7    N245      2.37622      .   S
    Cd6    N241      2.40624      .   S
    Cd6    N238      2.36172      .   S
    Cd6    N244      2.37538      .   S
    C182   Ni14      1.84100      .   S
    C183   Ni15      1.84072      .   S
    C135   Ni15      1.84032      .   S
    C134   Ni14      1.84022      .   S
    N208   H19       1.02697      .   S
    N208   Cd0       2.37272      .   S
    N209   H18       1.02665  1_655   S
    N209   Cd1       2.37274      .   S
    N240   C186      1.17477      .   S
    N241   C187      1.17489      .   S
    N238   C184      1.17424      .   S
    N239   C185      1.17427      .   S
    Ni14   C130      1.85211      .   S
    Ni14   C132      1.86159      .   S
    Ni15   C131      1.85142      .   S
    Ni15   C133      1.86126      .   S
    C187   Ni9       1.84299      .   S
    C186   Ni8       1.84325      .   S
    C184   Ni8       1.84451      .   S
    C185   Ni9       1.84414      .   S
    C131   N203      1.16729  1_545   S
    C130   N202      1.16672  1_545   S
    C133   N205      1.15815  1_545   S
    C132   N204      1.15846  1_545   S
    Ni9    C189      1.84163      .   S
    Ni9    C129      1.84193      .   S
    Ni8    C188      1.84140      .   S
    Ni8    C128      1.84224      .   S
    N203   Cd1       2.36306      .   S
    N202   Cd0       2.36343      .   S
    H106   C190      1.09619      .   S
    H107   C191      1.09686      .   S
    N205   Cd0       2.41012      .   S
    N204   Cd1       2.41042  1_455   S
    H102   N245      1.02670  1_455   S
    H103   N244      1.02703      .   S
    C188   N206      1.17523      .   S
    C189   N207      1.17524      .   S
    C129   N201      1.17513      .   S
    C128   N200      1.17470      .   S
    N244   C190      1.48054      .   S
    N244   H100      1.02507      .   S
    N245   C191      1.48082      .   S
    N245   H101      1.02515      .   S
    Cd1    N201      2.34672      .   S
    Cd1    N206      2.39165  1_655   S
    Cd1    N211      2.36621      .   S
    Cd0    N200      2.34648      .   S
    Cd0    N207      2.39140      .   S
    Cd0    N210      2.36623      .   S
    C190   H104      1.10022      .   S
    C190   C193      1.52577      .   S
    C191   H105      1.10009      .   S
    C191   C192      1.52498      .   S
    H108   C192      1.10404  1_455   S
    H109   C193      1.10370      .   S
    C193   H110      1.10312      .   S
    C193   C194      1.53065      .   S
    C192   H111      1.10295      .   S
    C192   C195      1.53067      .   S
    N210   H40       1.02656      .   S
    N210   H42       1.02636      .   S
    N210   C162      1.47914      .   S
    N211   H41       0.98308  1_655   S
    N211   H43       1.02637      .   S
    N211   C163      1.48031      .   S
    H113   C194      1.10321      .   S
    H112   C195      1.10301  1_455   S
    C195   H115      1.10374      .   S
    C195   C196      1.53136  1_655   S
    C194   H114      1.10350      .   S
    C194   C197      1.53143      .   S
    H65    C162      1.09932      .   S
    H64    C163      1.09938  1_455   S
    H67    C163      1.09983      .   S
    H66    C162      1.09977      .   S
    H118   C196      1.10529      .   S
    H119   C197      1.10529      .   S
    C197   H116      1.10432      .   S
    C196   H117      1.10412  1_455   S
