# CIF file generated by openbabel 2.4.90, see http://openbabel.sf.net
data_I
_chemical_name_common 'VESTA_phase_1'
_cell_length_a 14.53
_cell_length_b 15.861
_cell_length_c 16.411
_cell_angle_alpha 89.999
_cell_angle_beta 89.998
_cell_angle_gamma 89.999
_space_group_name_H-M_alt 'P 1'
_space_group_name_Hall 'P 1'
loop_
    _symmetry_equiv_pos_as_xyz
    x,y,z
loop_
    _atom_site_label
    _atom_site_type_symbol
    _atom_site_fract_x
    _atom_site_fract_y
    _atom_site_fract_z
    _atom_site_occupancy
    Cd0     Cd   0.35773   0.06152   0.22199   1.000
    Cd1     Cd   0.12228   0.97642   0.31419   1.000
    Cd2     Cd   0.14229   0.93835   0.72198   1.000
    Cd3     Cd   0.37768   0.02362   0.81415   1.000
    Cd4     Cd   0.64231   0.56152   0.27799   1.000
    Cd5     Cd   0.87777   0.47643   0.18579   1.000
    Cd6     Cd   0.85776   0.43836   0.77798   1.000
    Cd7     Cd   0.62236   0.52362   0.68581   1.000
    Cd8     Cd   0.64232   0.93846   0.77798   1.000
    Cd9     Cd   0.87776   0.02359   0.68579   1.000
    Cd10    Cd   0.85775   0.06166   0.27799   1.000
    Cd11    Cd   0.62237   0.97637   0.18582   1.000
    Cd12    Cd   0.35773   0.43847   0.72199   1.000
    Cd13    Cd   0.12228   0.52358   0.81418   1.000
    Cd14    Cd   0.14229   0.56165   0.22199   1.000
    Cd15    Cd   0.37767   0.47637   0.31417   1.000
    Cd16    Cd   0.00000   0.00000   0.00000   1.000
    Cd17    Cd   0.50002   0.00000   0.49990   1.000
    Cd18    Cd   0.00001   0.50000   0.49999   1.000
    Cd19    Cd   0.50002   0.50000   0.00000   1.000
    H20     H    0.45047   0.08025   0.02031   1.000
    H21     H    0.27948   0.25841   0.30307   1.000
    H22     H    0.62819   0.27815   0.17766   1.000
    H23     H    0.04958   0.91949   0.52028   1.000
    H24     H    0.22038   0.74152   0.80324   1.000
    H25     H    0.87177   0.72179   0.67769   1.000
    H26     H    0.54957   0.58026   0.47967   1.000
    H27     H    0.72056   0.75840   0.19693   1.000
    H28     H    0.37184   0.77815   0.32232   1.000
    H29     H    0.95046   0.41946   0.97969   1.000
    H30     H    0.77968   0.24154   0.69672   1.000
    H31     H    0.12830   0.22179   0.82227   1.000
    H32     H    0.54959   0.91971   0.97966   1.000
    H33     H    0.72056   0.74158   0.69690   1.000
    H34     H    0.37185   0.72184   0.82231   1.000
    H35     H    0.95045   0.08055   0.47970   1.000
    H36     H    0.77966   0.25850   0.19674   1.000
    H37     H    0.12827   0.27821   0.32228   1.000
    H38     H    0.45046   0.41970   0.52030   1.000
    H39     H    0.27949   0.24159   0.80306   1.000
    H40     H    0.62820   0.22184   0.67765   1.000
    H41     H    0.04960   0.58059   0.02020   1.000
    H42     H    0.22036   0.75847   0.30328   1.000
    H43     H    0.87175   0.77821   0.17770   1.000
    C44     C    0.17300   0.99917   0.12066   1.000
    C45     C    0.24425   0.01604   0.05792   1.000
    C46     C    0.38055   0.05618   0.01829   1.000
    C47     C    0.25095   0.00000   0.97279   1.000
    C48     C    0.19065   0.97060   0.90791   1.000
    C49     C    0.34847   0.26419   0.27883   1.000
    C50     C    0.47848   0.23167   0.22183   1.000
    C51     C    0.55431   0.38038   0.23753   1.000
    C52     C    0.48059   0.31690   0.24432   1.000
    C53     C    0.54834   0.17771   0.18442   1.000
    C54     C    0.32698   0.00075   0.62063   1.000
    C55     C    0.25576   0.98378   0.55790   1.000
    C56     C    0.11948   0.94359   0.51826   1.000
    C57     C    0.24906   0.99471   0.47280   1.000
    C58     C    0.30934   0.02931   0.40792   1.000
    C59     C    0.15141   0.73574   0.77896   1.000
    C60     C    0.02143   0.76827   0.72191   1.000
    C61     C    0.94564   0.61956   0.73758   1.000
    C62     C    0.01932   0.68304   0.74438   1.000
    C63     C    0.95164   0.82222   0.68444   1.000
    C64     C    0.82704   0.49917   0.37932   1.000
    C65     C    0.75578   0.51604   0.44206   1.000
    C66     C    0.61949   0.55619   0.48100   1.000
    C67     C    0.74910   0.50516   0.52717   1.000
    C68     C    0.80940   0.47060   0.59205   1.000
    C69     C    0.65158   0.76419   0.22117   1.000
    C70     C    0.52155   0.73167   0.27816   1.000
    C71     C    0.44573   0.88038   0.26245   1.000
    C72     C    0.51945   0.81690   0.25567   1.000
    C73     C    0.45169   0.67770   0.31556   1.000
    C74     C    0.67306   0.50074   0.87933   1.000
    C75     C    0.74429   0.48377   0.94206   1.000
    C76     C    0.88056   0.44357   0.98170   1.000
    C77     C    0.75098   0.49469   0.02718   1.000
    C78     C    0.69070   0.52930   0.09205   1.000
    C79     C    0.84864   0.23576   0.72100   1.000
    C80     C    0.97863   0.26827   0.77805   1.000
    C81     C    0.05441   0.11955   0.76238   1.000
    C82     C    0.98073   0.18304   0.75559   1.000
    C83     C    0.04842   0.32222   0.81552   1.000
    C84     C    0.82705   0.00082   0.87931   1.000
    C85     C    0.75580   0.98395   0.94205   1.000
    C86     C    0.61951   0.94378   0.98169   1.000
    C87     C    0.74909   0.99483   0.02718   1.000
    C88     C    0.80939   0.02940   0.09206   1.000
    C89     C    0.65158   0.73579   0.72114   1.000
    C90     C    0.52156   0.76832   0.77814   1.000
    C91     C    0.44573   0.61961   0.76244   1.000
    C92     C    0.51945   0.68309   0.75565   1.000
    C93     C    0.45170   0.82228   0.81555   1.000
    C94     C    0.67306   0.99925   0.37934   1.000
    C95     C    0.74428   0.01623   0.44207   1.000
    C96     C    0.88055   0.05644   0.48171   1.000
    C97     C    0.75098   0.00000   0.52718   1.000
    C98     C    0.69070   0.97070   0.59205   1.000
    C99     C    0.84862   0.26427   0.22101   1.000
    C100    C    0.97861   0.23174   0.27806   1.000
    C101    C    0.05440   0.38045   0.26239   1.000
    C102    C    0.98072   0.31697   0.25559   1.000
    C103    C    0.04840   0.17778   0.31553   1.000
    C104    C    0.17300   0.50082   0.62065   1.000
    C105    C    0.24426   0.48395   0.55792   1.000
    C106    C    0.38055   0.44378   0.51828   1.000
    C107    C    0.25094   0.49483   0.47280   1.000
    C108    C    0.19065   0.52939   0.40790   1.000
    C109    C    0.34847   0.23580   0.77882   1.000
    C110    C    0.47849   0.26832   0.72182   1.000
    C111    C    0.55432   0.11961   0.73752   1.000
    C112    C    0.48059   0.18309   0.74431   1.000
    C113    C    0.54835   0.32229   0.68442   1.000
    C114    C    0.32699   0.49926   0.12065   1.000
    C115    C    0.25576   0.51624   0.05792   1.000
    C116    C    0.11950   0.55647   0.01827   1.000
    C117    C    0.24907   0.50533   0.97279   1.000
    C118    C    0.30934   0.47070   0.90792   1.000
    C119    C    0.15139   0.76425   0.27899   1.000
    C120    C    0.02141   0.73173   0.22193   1.000
    C121    C    0.94563   0.88045   0.23759   1.000
    C122    C    0.01931   0.81697   0.24439   1.000
    C123    C    0.95163   0.67778   0.18445   1.000
    N124    N    0.32739   0.04784   0.08479   1.000
    N125    N    0.33799   0.03119   0.94968   1.000
    N126    N    0.39424   0.19942   0.24450   1.000
    N127    N    0.39796   0.33623   0.28012   1.000
    N128    N    0.17265   0.95192   0.58477   1.000
    N129    N    0.16203   0.96865   0.44969   1.000
    N130    N    0.10566   0.80052   0.74466   1.000
    N131    N    0.10192   0.66371   0.78022   1.000
    N132    N    0.67265   0.54785   0.41519   1.000
    N133    N    0.66205   0.53119   0.55028   1.000
    N134    N    0.60580   0.69941   0.25544   1.000
    N135    N    0.60209   0.83622   0.21988   1.000
    N136    N    0.82740   0.45190   0.91519   1.000
    N137    N    0.83801   0.46863   0.05000   1.000
    N138    N    0.89440   0.30053   0.75530   1.000
    N139    N    0.89813   0.16372   0.71974   1.000
    N140    N    0.67266   0.95213   0.91518   1.000
    N141    N    0.66206   0.96879   0.05029   1.000
    N142    N    0.60580   0.80057   0.75542   1.000
    N143    N    0.60208   0.66376   0.71985   1.000
    N144    N    0.82739   0.04811   0.41520   1.000
    N145    N    0.83801   0.03138   0.55029   1.000
    N146    N    0.89438   0.19949   0.25530   1.000
    N147    N    0.89812   0.33630   0.21975   1.000
    N148    N    0.32739   0.45213   0.58479   1.000
    N149    N    0.33799   0.46879   0.44970   1.000
    N150    N    0.39425   0.30058   0.74455   1.000
    N151    N    0.39796   0.16376   0.78010   1.000
    N152    N    0.17265   0.54813   0.08478   1.000
    N153    N    0.16204   0.53140   0.94968   1.000
    N154    N    0.10564   0.69948   0.24469   1.000
    N155    N    0.10191   0.83628   0.28020   1.000
    O156    O    0.19890   0.01091   0.19443   1.000
    O157    O    0.09182   0.97436   0.10414   1.000
    O158    O    0.22948   0.95867   0.83887   1.000
    O159    O    0.10589   0.95241   0.91730   1.000
    O160    O    0.62889   0.36199   0.20088   1.000
    O161    O    0.53113   0.10079   0.17358   1.000
    O162    O    0.62713   0.21114   0.16307   1.000
    O163    O    0.53894   0.45202   0.27098   1.000
    O164    O    0.30108   0.98905   0.69441   1.000
    O165    O    0.40814   0.02562   0.60410   1.000
    O166    O    0.27051   0.04127   0.33889   1.000
    O167    O    0.39410   0.04750   0.41733   1.000
    O168    O    0.87109   0.63793   0.70089   1.000
    O169    O    0.96889   0.89913   0.67356   1.000
    O170    O    0.87284   0.78881   0.66310   1.000
    O171    O    0.96107   0.54790   0.77098   1.000
    O172    O    0.80113   0.51091   0.30555   1.000
    O173    O    0.90823   0.47437   0.39584   1.000
    O174    O    0.77057   0.45867   0.66109   1.000
    O175    O    0.89416   0.45241   0.58264   1.000
    O176    O    0.37115   0.86199   0.29910   1.000
    O177    O    0.46891   0.60079   0.32640   1.000
    O178    O    0.37290   0.71114   0.33691   1.000
    O179    O    0.46111   0.95202   0.22900   1.000
    O180    O    0.69897   0.48905   0.80555   1.000
    O181    O    0.59190   0.52561   0.89585   1.000
    O182    O    0.72953   0.54126   0.16100   1.000
    O183    O    0.60593   0.54750   0.08260   1.000
    O184    O    0.12896   0.13793   0.79907   1.000
    O185    O    0.03117   0.39913   0.82641   1.000
    O186    O    0.12723   0.28880   0.83686   1.000
    O187    O    0.03898   0.04790   0.72899   1.000
    O188    O    0.80114   0.98909   0.80554   1.000
    O189    O    0.90823   0.02564   0.89583   1.000
    O190    O    0.77056   0.04132   0.16110   1.000
    O191    O    0.89415   0.04758   0.08264   1.000
    O192    O    0.37115   0.63801   0.79909   1.000
    O193    O    0.46892   0.89920   0.82639   1.000
    O194    O    0.37291   0.78885   0.83690   1.000
    O195    O    0.46110   0.54797   0.72899   1.000
    O196    O    0.69897   0.01095   0.30556   1.000
    O197    O    0.59190   0.97438   0.39587   1.000
    O198    O    0.72954   0.95873   0.66108   1.000
    O199    O    0.60594   0.95250   0.58264   1.000
    O200    O    0.12895   0.36207   0.29908   1.000
    O201    O    0.03114   0.10088   0.32641   1.000
    O202    O    0.12720   0.21120   0.33687   1.000
    O203    O    0.03898   0.45211   0.22899   1.000
    O204    O    0.19891   0.48909   0.69442   1.000
    O205    O    0.09182   0.52563   0.60413   1.000
    O206    O    0.22948   0.54132   0.33880   1.000
    O207    O    0.10589   0.54758   0.41734   1.000
    O208    O    0.62890   0.13800   0.70087   1.000
    O209    O    0.53113   0.39920   0.67357   1.000
    O210    O    0.62714   0.28885   0.66306   1.000
    O211    O    0.53894   0.04797   0.77097   1.000
    O212    O    0.30107   0.51094   0.19442   1.000
    O213    O    0.40814   0.47439   0.10412   1.000
    O214    O    0.27051   0.45874   0.83889   1.000
    O215    O    0.39410   0.45250   0.91733   1.000
    O216    O    0.87108   0.86208   0.20090   1.000
    O217    O    0.96889   0.60088   0.17357   1.000
    O218    O    0.87282   0.71120   0.16311   1.000
    O219    O    0.96106   0.95211   0.27099   1.000
loop_
    _geom_bond_atom_site_label_1
    _geom_bond_atom_site_label_2
    _geom_bond_distance
    _geom_bond_site_symmetry_2
    _ccdc_geom_bond_type
    Cd16   O191      2.18500  1_455   S
    Cd16   O157      2.20593  1_545   S
    Cd16   O189      2.20595  1_454   S
    Cd16   O159      2.18604  1_544   S
    C116   H41       1.08573      .   S
    C116   N152      1.34367      .   S
    C116   N153      1.34431  1_554   S
    C46    H20       1.08576      .   S
    C46    N124      1.34353      .   S
    C46    N125      1.34437  1_554   S
    C77    N137      1.38216      .   S
    C77    C78       1.48388      .   S
    C77    C75       1.41096  1_554   S
    C87    N141      1.38340      .   S
    C87    C88       1.48390  1_565   S
    C87    C85       1.41105  1_554   S
    N137   Cd5       2.30543      .   S
    N137   C76       1.34032  1_554   S
    N141   Cd11      2.30084      .   S
    N141   C86       1.34425  1_554   S
    C45    N124      1.38137      .   S
    C45    C44       1.48442  1_545   S
    C45    C47       1.42336  1_554   S
    C115   N152      1.38136      .   S
    C115   C114      1.48439      .   S
    C115   C117      1.41112  1_554   S
    O183   C78       1.27441      .   S
    O183   Cd19      2.18488      .   S
    O191   C88       1.27430      .   S
    N152   Cd14      2.30456      .   S
    N124   Cd0       2.30460      .   S
    C78    O182      1.27860      .   S
    C88    O190      1.27979      .   S
    O213   C114      1.27268      .   S
    O213   Cd19      2.20608      .   S
    O157   C44       1.27272      .   S
    C114   O212      1.28132      .   S
    C44    O156      1.28143  1_565   S
    O182   Cd4       2.32278      .   S
    O190   Cd10      2.32142      .   S
    O162   H22       1.08963      .   S
    O162   C53       1.30937      .   S
    O218   H43       1.08964      .   S
    O218   C123      1.30944      .   S
    O217   C123      1.25803      .   S
    O217   Cd5       2.38521      .   S
    O161   C53       1.25802      .   S
    O161   Cd11      2.38593  1_545   S
    C53    C50       1.46279      .   S
    C123   C120      1.46244  1_655   S
    Cd5    N147      2.31049      .   S
    Cd5    O172      2.32412      .   S
    Cd11   N135      2.31084      .   S
    Cd11   O196      2.32405  1_565   S
    O212   Cd15      2.32421      .   S
    O156   Cd1       2.32411  1_545   S
    H36    C99       1.08226      .   S
    H27    C69       1.08230      .   S
    O160   C51       1.27317      .   S
    O216   C121      1.27313      .   S
    N147   C99       1.35010      .   S
    N147   C102      1.37127      .   S
    N135   C69       1.35014      .   S
    N135   C72       1.37133      .   S
    C99    N146      1.34693      .   S
    C69    N134      1.34697      .   S
    C50    C52       1.40164      .   S
    C50    N126      1.37778      .   S
    C120   C122      1.40158      .   S
    C120   N154      1.37805      .   S
    Cd0    O179      2.29910  1_545   S
    Cd0    N126      2.28072      .   S
    Cd0    O166      2.32156      .   S
    Cd14   O203      2.29894      .   S
    Cd14   N154      2.28064      .   S
    Cd14   O206      2.32035      .   S
    O203   C101      1.28158      .   S
    O179   C71       1.28158      .   S
    C51    C52       1.47439      .   S
    C51    O163      1.28161      .   S
    C121   C122      1.47396  1_655   S
    C121   O219      1.28162      .   S
    C52    N127      1.37135      .   S
    C122   N155      1.37097      .   S
    N126   C49       1.34735      .   S
    N154   C119      1.34697      .   S
    N146   Cd10      2.28066      .   S
    N146   C100      1.37809      .   S
    N134   Cd4       2.28084      .   S
    N134   C70       1.37803      .   S
    C102   C101      1.47398  1_655   S
    C102   C100      1.40160      .   S
    C72    C71       1.47438      .   S
    C72    C70       1.40165      .   S
    C101   O200      1.27315      .   S
    C71    O176      1.27321      .   S
    O163   Cd4       2.29896      .   S
    O219   Cd10      2.29904  1_565   S
    Cd10   N144      2.30457      .   S
    Cd4    N132      2.30458      .   S
    C100   C103      1.46243  1_655   S
    C70    C73       1.46277      .   S
    C49    N127      1.35015      .   S
    C49    H21       1.08226      .   S
    C119   N155      1.35009      .   S
    C119   H42       1.08233      .   S
    N127   Cd15      2.31084      .   S
    N155   Cd1       2.31073      .   S
    O172   C64       1.28144      .   S
    O196   C94       1.28146  1_545   S
    Cd15   O177      2.38577      .   S
    Cd15   N149      2.30083      .   S
    Cd1    O201      2.38536  1_565   S
    Cd1    N129      2.30079      .   S
    C103   O201      1.25804      .   S
    C103   O202      1.30942      .   S
    C73    O177      1.25802      .   S
    C73    O178      1.30937      .   S
    H37    O202      1.08968      .   S
    H28    O178      1.08965      .   S
    O206   C108      1.28065      .   S
    O166   C58       1.27976      .   S
    C64    O173      1.27271      .   S
    C64    C65       1.48447      .   S
    C94    O197      1.27268      .   S
    C94    C95       1.48433  1_565   S
    O173   Cd18      2.20572  1_655   S
    O197   Cd17      2.20502  1_565   S
    C108   O207      1.27436      .   S
    C108   C107      1.48410      .   S
    C58    O167      1.27432      .   S
    C58    C57       1.48395  1_545   S
    N132   C65       1.38138      .   S
    N132   C66       1.33434      .   S
    N144   C95       1.38140      .   S
    N144   C96       1.34368      .   S
    O167   Cd17      2.18454      .   S
    O207   Cd18      2.18542      .   S
    C65    C67       1.41070      .   S
    C95    C97       1.42361      .   S
    N129   C57       1.38339      .   S
    N129   C56       1.34399      .   S
    N149   C107      1.38344      .   S
    N149   C106      1.34400      .   S
    C107   C105      1.41087      .   S
    C57    C55       1.41065      .   S
    H26    C66       1.08547      .   S
    H35    C96       1.08576      .   S
    C66    N133      1.35363      .   S
    C96    N145      1.34414      .   S
    Cd17   O199      2.18639  1_545   S
    Cd17   O165      2.20709      .   S
    Cd18   O175      2.18508  1_455   S
    Cd18   O205      2.20590      .   S
    C56    H23       1.08576      .   S
    C56    N128      1.34370      .   S
    C106   H38       1.08575      .   S
    C106   N148      1.34365      .   S
    C67    N133      1.38349      .   S
    C67    C68       1.48384      .   S
    C97    N145      1.41083      .   S
    C97    C98       1.45483  1_545   S
    N133   Cd7       2.30082      .   S
    N145   Cd9       2.30082      .   S
    C55    N128      1.38139      .   S
    C55    C54       1.48435  1_565   S
    C105   N148      1.38137      .   S
    C105   C104      1.48436      .   S
    O199   C98       1.27431      .   S
    O175   C68       1.27429      .   S
    N128   Cd2       2.30458      .   S
    N148   Cd12      2.30456      .   S
    C98    O198      1.27979      .   S
    C68    O174      1.27975      .   S
    O165   C54       1.27269      .   S
    O205   C104      1.27271      .   S
    C54    O164      1.28146  1_545   S
    C104   O204      1.28143      .   S
    O198   Cd8       2.32157      .   S
    O174   Cd6       2.32139      .   S
    O210   H40       1.08963      .   S
    O210   C113      1.30942      .   S
    O170   H25       1.08965      .   S
    O170   C63       1.30943      .   S
    O169   C63       1.25804      .   S
    O169   Cd9       2.38541  1_565   S
    O209   C113      1.25803      .   S
    O209   Cd7       2.38574      .   S
    C113   C110      1.46273      .   S
    C63    C60       1.46243  1_655   S
    Cd9    N139      2.31051      .   S
    Cd9    O188      2.32399  1_545   S
    Cd7    N143      2.31081      .   S
    Cd7    O180      2.32404      .   S
    O164   Cd3       2.32403  1_565   S
    O204   Cd13      2.32416      .   S
    H30    C79       1.08230      .   S
    H33    C89       1.08227      .   S
    O208   C111      1.27320      .   S
    O168   C61       1.27314      .   S
    N139   C79       1.35011      .   S
    N139   C82       1.37132      .   S
    N143   C89       1.35015      .   S
    N143   C92       1.37135      .   S
    C79    N138      1.34699      .   S
    C89    N142      1.34700      .   S
    C110   C112      1.40164      .   S
    C110   N150      1.37805      .   S
    C60    C62       1.40160      .   S
    C60    N130      1.37805      .   S
    Cd2    O187      2.29902  1_565   S
    Cd2    N130      2.28063      .   S
    Cd2    O158      2.32140      .   S
    Cd12   O195      2.29898      .   S
    Cd12   N150      2.28087      .   S
    Cd12   O214      2.32160      .   S
    O187   C81       1.28154      .   S
    O195   C91       1.28161      .   S
    C111   C112      1.47439      .   S
    C111   O211      1.28159      .   S
    C61    C62       1.47398  1_655   S
    C61    O171      1.28158      .   S
    C112   N151      1.37130      .   S
    C62    N131      1.37126      .   S
    N150   C109      1.34697      .   S
    N130   C59       1.34699      .   S
    N138   Cd6       2.28059      .   S
    N138   C80       1.37804      .   S
    N142   Cd8       2.28087      .   S
    N142   C90       1.37801      .   S
    C82    C81       1.47396  1_655   S
    C82    C80       1.40158      .   S
    C92    C91       1.47440      .   S
    C92    C90       1.40164      .   S
    C81    O184      1.27315      .   S
    C91    O192      1.27316      .   S
    O211   Cd8       2.29913  1_545   S
    O171   Cd6       2.29889      .   S
    Cd8    N140      2.30459      .   S
    Cd6    N136      2.30458      .   S
    C80    C83       1.46241  1_655   S
    C90    C93       1.46280      .   S
    C109   N151      1.35014      .   S
    C109   H39       1.08226      .   S
    C59    N131      1.35010      .   S
    C59    H24       1.08232      .   S
    N151   Cd3       2.31084      .   S
    N131   Cd13      2.31049      .   S
    O188   C84       1.28142  1_565   S
    O180   C74       1.28149      .   S
    Cd3    O193      2.38588  1_545   S
    Cd3    N125      2.30082      .   S
    Cd13   O185      2.38525      .   S
    Cd13   N153      2.30086      .   S
    C83    O185      1.25805      .   S
    C83    O186      1.30948      .   S
    C93    O193      1.25802      .   S
    C93    O194      1.30937      .   S
    H31    O186      1.08964      .   S
    H34    O194      1.08964      .   S
    O158   C48       1.27976      .   S
    O214   C118      1.27980      .   S
    C84    O189      1.27273      .   S
    C84    C85       1.48440  1_545   S
    C74    O181      1.27266      .   S
    C74    C75       1.48439      .   S
    O181   Cd19      2.20647  1_556   S
    C48    O159      1.27426      .   S
    C48    C47       1.45564  1_565   S
    C118   O215      1.27430      .   S
    C118   C117      1.48391      .   S
    N140   C85       1.38139      .   S
    N140   C86       1.34364      .   S
    N136   C75       1.38141      .   S
    N136   C76       1.34369      .   S
    O215   Cd19      2.18555  1_556   S
    N125   C47       1.40997      .   S
    N153   C117      1.38345      .   S
    H32    C86       1.08576      .   S
    H29    C76       1.08575      .   S
    O156   Cd0       2.48489      .   S
    O158   Cd3       2.42120  1_565   S
    O163   Cd15      2.47821      .   S
    O164   Cd2       2.48476      .   S
    O166   Cd1       2.42096  1_545   S
    O171   Cd13      2.47759  1_655   S
    O172   Cd4       2.48483      .   S
    O174   Cd7       2.42127      .   S
    O179   Cd11      2.47820      .   S
    O180   Cd6       2.48478      .   S
    O182   Cd5       2.42115      .   S
    O187   Cd9       2.47761  1_455   S
    O188   Cd8       2.48486      .   S
    O190   Cd11      2.42117  1_545   S
    O195   Cd7       2.47817      .   S
    O196   Cd10      2.48474      .   S
    O198   Cd9       2.42097  1_565   S
    O203   Cd5       2.47760  1_455   S
    O204   Cd12      2.48482      .   S
    O206   Cd15      2.42096      .   S
    O211   Cd3       2.47819      .   S
    O212   Cd14      2.48475      .   S
    O214   Cd13      2.42089      .   S
    O219   Cd1       2.47762  1_655   S
