# CIF file generated by openbabel 2.4.90, see http://openbabel.sf.net
data_I
_chemical_name_common ''
_cell_length_a 20.255
_cell_length_b 18.421
_cell_length_c 18.542
_cell_angle_alpha 89.999
_cell_angle_beta 90.023
_cell_angle_gamma 89.947
_space_group_name_H-M_alt 'P 1'
_space_group_name_Hall 'P 1'
loop_
    _symmetry_equiv_pos_as_xyz
    x,y,z
loop_
    _atom_site_label
    _atom_site_type_symbol
    _atom_site_fract_x
    _atom_site_fract_y
    _atom_site_fract_z
    _atom_site_occupancy
    C0      C    0.46416   0.93762   0.67814   1.000
    C1      C    0.96415   0.93762   0.67814   1.000
    C2      C    0.05869   0.03431   0.78443   1.000
    C3      C    0.55868   0.03431   0.78443   1.000
    C4      C    0.28586   0.43781   0.82177   1.000
    C5      C    0.78586   0.43781   0.82177   1.000
    C6      C    0.19127   0.53422   0.71543   1.000
    C7      C    0.69126   0.53422   0.71543   1.000
    C8      C    0.03581   0.56233   0.67810   1.000
    C9      C    0.53580   0.56233   0.67810   1.000
    C10     C    0.44128   0.46572   0.78452   1.000
    C11     C    0.94127   0.46572   0.78452   1.000
    C12     C    0.21408   0.06240   0.82180   1.000
    C13     C    0.71408   0.06240   0.82180   1.000
    C14     C    0.30873   0.96576   0.71542   1.000
    C15     C    0.80872   0.96576   0.71542   1.000
    C16     C    0.03583   0.06237   0.32184   1.000
    C17     C    0.53582   0.06237   0.32184   1.000
    C18     C    0.44131   0.96568   0.21555   1.000
    C19     C    0.94130   0.96568   0.21555   1.000
    C20     C    0.21413   0.56218   0.17821   1.000
    C21     C    0.71412   0.56218   0.17821   1.000
    C22     C    0.30872   0.46577   0.28455   1.000
    C23     C    0.80872   0.46577   0.28455   1.000
    C24     C    0.46419   0.43767   0.32182   1.000
    C25     C    0.96418   0.43767   0.32182   1.000
    C26     C    0.05871   0.53427   0.21547   1.000
    C27     C    0.55871   0.53427   0.21547   1.000
    C28     C    0.28591   0.93759   0.17813   1.000
    C29     C    0.78590   0.93759   0.17813   1.000
    C30     C    0.19127   0.03424   0.28456   1.000
    C31     C    0.69126   0.03424   0.28456   1.000
    C32     C    0.99999   0.74997   0.69027   1.000
    C33     C    0.49999   0.74997   0.69027   1.000
    C34     C    0.24977   0.25022   0.81190   1.000
    C35     C    0.74976   0.25022   0.81190   1.000
    C36     C    0.00000   0.25002   0.30972   1.000
    C37     C    0.49999   0.25002   0.30972   1.000
    C38     C    0.25023   0.74978   0.18808   1.000
    C39     C    0.75022   0.74978   0.18808   1.000
    C40     C    1.00000   0.00000   0.49999   1.000
    C41     C    0.49999   0.00000   0.49999   1.000
    C42     C    0.25000   0.50000   0.99999   1.000
    C43     C    0.74999   0.50000   0.00000   1.000
    C44     C    0.00000   0.50000   0.49999   1.000
    C45     C    0.49999   0.50000   0.49999   1.000
    C46     C    0.25000   0.00000   0.00000   1.000
    C47     C    0.74999   0.00000   0.00000   1.000
    C48     C    0.08047   0.86302   0.52208   1.000
    C49     C    0.58045   0.86301   0.52207   1.000
    C50     C    0.10475   0.87707   0.82776   1.000
    C51     C    0.60474   0.87707   0.82777   1.000
    C52     C    0.37865   0.00764   0.86706   1.000
    C53     C    0.87864   0.00765   0.86706   1.000
    C54     C    0.02574   0.14787   0.66027   1.000
    C55     C    0.52573   0.14787   0.66027   1.000
    C56     C    0.35404   0.75519   0.69019   1.000
    C57     C    0.85403   0.75519   0.69018   1.000
    C58     C    0.30551   0.99079   0.54940   1.000
    C59     C    0.80550   0.99079   0.54940   1.000
    C60     C    0.16859   0.36513   0.97771   1.000
    C61     C    0.66859   0.36513   0.97771   1.000
    C62     C    0.14582   0.37683   0.67210   1.000
    C63     C    0.64581   0.37683   0.67210   1.000
    C64     C    0.37141   0.50757   0.63294   1.000
    C65     C    0.87140   0.50757   0.63294   1.000
    C66     C    0.22381   0.64820   0.83978   1.000
    C67     C    0.72380   0.64820   0.83978   1.000
    C68     C    0.39602   0.25527   0.81114   1.000
    C69     C    0.89601   0.25527   0.81114   1.000
    C70     C    0.44458   0.49064   0.95048   1.000
    C71     C    0.94458   0.49064   0.95048   1.000
    C72     C    0.41953   0.63696   0.52201   1.000
    C73     C    0.91953   0.63696   0.52201   1.000
    C74     C    0.39529   0.62293   0.82774   1.000
    C75     C    0.89528   0.62293   0.82773   1.000
    C76     C    0.12140   0.49267   0.86706   1.000
    C77     C    0.62140   0.49268   0.86700   1.000
    C78     C    0.47405   0.35200   0.66024   1.000
    C79     C    0.97404   0.35200   0.66024   1.000
    C80     C    0.14594   0.74480   0.68988   1.000
    C81     C    0.64594   0.74480   0.68980   1.000
    C82     C    0.19443   0.50922   0.54948   1.000
    C83     C    0.69443   0.50922   0.54948   1.000
    C84     C    0.32982   0.13624   0.97920   1.000
    C85     C    0.82981   0.13624   0.97927   1.000
    C86     C    0.35474   0.12373   0.67340   1.000
    C87     C    0.85473   0.12373   0.67340   1.000
    C88     C    0.12851   0.99235   0.63309   1.000
    C89     C    0.62851   0.99234   0.63309   1.000
    C90     C    0.27618   0.85201   0.83973   1.000
    C91     C    0.77617   0.85201   0.83973   1.000
    C92     C    0.10376   0.24510   0.80897   1.000
    C93     C    0.60376   0.24510   0.80897   1.000
    C94     C    0.05542   0.00946   0.95055   1.000
    C95     C    0.55541   0.00946   0.95055   1.000
    C96     C    0.41953   0.13698   0.47791   1.000
    C97     C    0.91953   0.13698   0.47791   1.000
    C98     C    0.39524   0.12293   0.17222   1.000
    C99     C    0.89523   0.12293   0.17222   1.000
    C100    C    0.12134   0.99235   0.13292   1.000
    C101    C    0.62134   0.99235   0.13292   1.000
    C102    C    0.47425   0.85212   0.33970   1.000
    C103    C    0.97424   0.85212   0.33970   1.000
    C104    C    0.14596   0.24480   0.30980   1.000
    C105    C    0.64595   0.24480   0.30985   1.000
    C106    C    0.19448   0.00921   0.45053   1.000
    C107    C    0.69447   0.00920   0.45053   1.000
    C108    C    0.33139   0.63487   0.02227   1.000
    C109    C    0.83139   0.63487   0.02227   1.000
    C110    C    0.35417   0.62316   0.32789   1.000
    C111    C    0.85416   0.62316   0.32789   1.000
    C112    C    0.12859   0.49243   0.36704   1.000
    C113    C    0.62858   0.49243   0.36704   1.000
    C114    C    0.27618   0.35179   0.16020   1.000
    C115    C    0.77617   0.35179   0.16020   1.000
    C116    C    0.10397   0.74473   0.18885   1.000
    C117    C    0.60397   0.74473   0.18885   1.000
    C118    C    0.05541   0.50936   0.04950   1.000
    C119    C    0.55540   0.50936   0.04950   1.000
    C120    C    0.08047   0.36304   0.47797   1.000
    C121    C    0.58045   0.36303   0.47797   1.000
    C122    C    0.10471   0.37706   0.17225   1.000
    C123    C    0.60470   0.37706   0.17225   1.000
    C124    C    0.37859   0.50733   0.13292   1.000
    C125    C    0.87858   0.50732   0.13292   1.000
    C126    C    0.02594   0.64799   0.33974   1.000
    C127    C    0.52593   0.64799   0.33974   1.000
    C128    C    0.35405   0.25520   0.31012   1.000
    C129    C    0.85404   0.25520   0.31012   1.000
    C130    C    0.30556   0.49078   0.45050   1.000
    C131    C    0.80555   0.49078   0.45050   1.000
    C132    C    0.17017   0.86375   0.02072   1.000
    C133    C    0.67016   0.86376   0.02070   1.000
    C134    C    0.14526   0.87626   0.32660   1.000
    C135    C    0.64525   0.87626   0.32600   1.000
    C136    C    0.37148   0.00765   0.36690   1.000
    C137    C    0.87147   0.00765   0.36690   1.000
    C138    C    0.22381   0.14798   0.16025   1.000
    C139    C    0.72380   0.14798   0.16025   1.000
    C140    C    0.39623   0.75489   0.19100   1.000
    C141    C    0.89622   0.75489   0.19102   1.000
    C142    C    0.44457   0.99054   0.04944   1.000
    C143    C    0.94457   0.99054   0.04944   1.000
    C144    C    0.05029   0.85981   0.57146   1.000
    C145    C    0.55028   0.85981   0.57146   1.000
    C146    C    0.06843   0.86531   0.78468   1.000
    C147    C    0.56842   0.86531   0.78468   1.000
    C148    C    0.01226   0.09435   0.63766   1.000
    C149    C    0.51225   0.09435   0.63766   1.000
    C150    C    0.41936   0.00213   0.82794   1.000
    C151    C    0.91936   0.00213   0.82794   1.000
    C152    C    0.36322   0.81403   0.69390   1.000
    C153    C    0.86321   0.81403   0.69300   1.000
    C154    C    0.35922   0.98739   0.55963   1.000
    C155    C    0.85921   0.98739   0.55963   1.000
    C156    C    0.19909   0.36147   0.92860   1.000
    C157    C    0.69909   0.36147   0.92860   1.000
    C158    C    0.18191   0.36518   0.71547   1.000
    C159    C    0.68190   0.36518   0.71547   1.000
    C160    C    0.23761   0.59465   0.86220   1.000
    C161    C    0.73760   0.59465   0.86220   1.000
    C162    C    0.33067   0.50204   0.67202   1.000
    C163    C    0.83066   0.50204   0.67202   1.000
    C164    C    0.38676   0.31406   0.80673   1.000
    C165    C    0.88675   0.31406   0.80673   1.000
    C166    C    0.39087   0.48732   0.94032   1.000
    C167    C    0.89086   0.48732   0.94032   1.000
    C168    C    0.44969   0.64015   0.57144   1.000
    C169    C    0.94969   0.64015   0.57144   1.000
    C170    C    0.43157   0.63468   0.78465   1.000
    C171    C    0.93157   0.63468   0.78465   1.000
    C172    C    0.48765   0.40555   0.63775   1.000
    C173    C    0.98764   0.40555   0.63775   1.000
    C174    C    0.08067   0.49801   0.82791   1.000
    C175    C    0.58066   0.49801   0.82791   1.000
    C176    C    0.13676   0.68597   0.69379   1.000
    C177    C    0.63675   0.68597   0.69379   1.000
    C178    C    0.14073   0.51261   0.55962   1.000
    C179    C    0.64072   0.51262   0.55962   1.000
    C180    C    0.29946   0.14012   0.93005   1.000
    C181    C    0.79945   0.14012   0.93005   1.000
    C182    C    0.31847   0.13494   0.71666   1.000
    C183    C    0.81846   0.13494   0.71666   1.000
    C184    C    0.26245   0.90554   0.86220   1.000
    C185    C    0.76244   0.90554   0.86220   1.000
    C186    C    0.16931   0.99789   0.67213   1.000
    C187    C    0.66930   0.99789   0.67213   1.000
    C188    C    0.11304   0.18626   0.80528   1.000
    C189    C    0.61303   0.18626   0.80528   1.000
    C190    C    0.10911   0.01284   0.94037   1.000
    C191    C    0.60911   0.01285   0.94037   1.000
    C192    C    0.44971   0.14018   0.42852   1.000
    C193    C    0.94970   0.14018   0.42852   1.000
    C194    C    0.43156   0.13468   0.21530   1.000
    C195    C    0.93155   0.13468   0.21531   1.000
    C196    C    0.48774   0.90564   0.36232   1.000
    C197    C    0.98773   0.90564   0.36232   1.000
    C198    C    0.08063   0.99786   0.17204   1.000
    C199    C    0.58062   0.99786   0.17204   1.000
    C200    C    0.13678   0.18596   0.30611   1.000
    C201    C    0.63677   0.18596   0.30611   1.000
    C202    C    0.14077   0.01260   0.44035   1.000
    C203    C    0.64076   0.01260   0.44035   1.000
    C204    C    0.30090   0.63853   0.07138   1.000
    C205    C    0.80089   0.63853   0.07138   1.000
    C206    C    0.31809   0.63481   0.28451   1.000
    C207    C    0.81808   0.63481   0.28451   1.000
    C208    C    0.26238   0.40534   0.13778   1.000
    C209    C    0.76238   0.40534   0.13778   1.000
    C210    C    0.16933   0.49795   0.32796   1.000
    C211    C    0.66932   0.49795   0.32796   1.000
    C212    C    0.11323   0.68593   0.19325   1.000
    C213    C    0.61323   0.68593   0.19325   1.000
    C214    C    0.10912   0.51268   0.05966   1.000
    C215    C    0.60911   0.51267   0.05966   1.000
    C216    C    0.05030   0.35984   0.42854   1.000
    C217    C    0.55029   0.35984   0.42855   1.000
    C218    C    0.06842   0.36531   0.21534   1.000
    C219    C    0.56841   0.36531   0.21533   1.000
    C220    C    0.01234   0.59445   0.36223   1.000
    C221    C    0.51233   0.59445   0.36223   1.000
    C222    C    0.41932   0.50198   0.17208   1.000
    C223    C    0.91932   0.50199   0.17208   1.000
    C224    C    0.36323   0.31402   0.30619   1.000
    C225    C    0.86323   0.31402   0.30600   1.000
    C226    C    0.35927   0.48738   0.44036   1.000
    C227    C    0.85926   0.48738   0.44036   1.000
    C228    C    0.20054   0.85987   0.06994   1.000
    C229    C    0.70053   0.85987   0.06994   1.000
    C230    C    0.18153   0.86505   0.28333   1.000
    C231    C    0.68152   0.86505   0.28333   1.000
    C232    C    0.23754   0.09445   0.13777   1.000
    C233    C    0.73754   0.09445   0.13777   1.000
    C234    C    0.33069   0.00210   0.32785   1.000
    C235    C    0.83068   0.00210   0.32785   1.000
    C236    C    0.38696   0.81373   0.19471   1.000
    C237    C    0.88695   0.81373   0.19471   1.000
    C238    C    0.39088   0.98715   0.05962   1.000
    C239    C    0.89087   0.98715   0.05962   1.000
    C240    C    0.01385   0.91619   0.58384   1.000
    C241    C    0.51384   0.91619   0.58384   1.000
    C242    C    0.05481   0.80402   0.60940   1.000
    C243    C    0.55480   0.80402   0.60941   1.000
    C244    C    0.04412   0.92128   0.75289   1.000
    C245    C    0.54411   0.92128   0.75289   1.000
    C246    C    0.05564   0.80014   0.77188   1.000
    C247    C    0.55563   0.80014   0.77188   1.000
    C248    C    0.01052   0.04162   0.68310   1.000
    C249    C    0.51052   0.04162   0.68310   1.000
    C250    C    0.00002   0.09015   0.57167   1.000
    C251    C    0.50001   0.09015   0.57167   1.000
    C252    C    0.40511   0.97209   0.76742   1.000
    C253    C    0.90510   0.97209   0.76742   1.000
    C254    C    0.47511   0.02528   0.84712   1.000
    C255    C    0.97510   0.02528   0.84712   1.000
    C256    C    0.42403   0.83355   0.68768   1.000
    C257    C    0.92402   0.83355   0.68768   1.000
    C258    C    0.39718   0.99072   0.50634   1.000
    C259    C    0.89717   0.99072   0.50634   1.000
    C260    C    0.31424   0.85464   0.70362   1.000
    C261    C    0.81424   0.85464   0.70362   1.000
    C262    C    0.37617   0.98084   0.62629   1.000
    C263    C    0.87617   0.98084   0.62629   1.000
    C264    C    0.23609   0.41734   0.91630   1.000
    C265    C    0.73608   0.41734   0.91630   1.000
    C266    C    0.19436   0.30573   0.89065   1.000
    C267    C    0.69435   0.30573   0.89065   1.000
    C268    C    0.20596   0.42131   0.74722   1.000
    C269    C    0.70595   0.42131   0.74722   1.000
    C270    C    0.19472   0.30007   0.72861   1.000
    C271    C    0.69471   0.30007   0.72860   1.000
    C272    C    0.23955   0.54208   0.81652   1.000
    C273    C    0.73954   0.54208   0.81652   1.000
    C274    C    0.24992   0.59029   0.92816   1.000
    C275    C    0.74991   0.59029   0.92816   1.000
    C276    C    0.34495   0.47204   0.73258   1.000
    C277    C    0.84494   0.47204   0.73258   1.000
    C278    C    0.27489   0.52514   0.65200   1.000
    C279    C    0.77488   0.52514   0.65200   1.000
    C280    C    0.32593   0.33367   0.81290   1.000
    C281    C    0.82593   0.33367   0.81290   1.000
    C282    C    0.35291   0.49065   0.99362   1.000
    C283    C    0.85291   0.49064   0.99362   1.000
    C284    C    0.43569   0.35452   0.79654   1.000
    C285    C    0.93568   0.35452   0.79654   1.000
    C286    C    0.37391   0.48082   0.87367   1.000
    C287    C    0.87390   0.48082   0.87367   1.000
    C288    C    0.48614   0.58377   0.58383   1.000
    C289    C    0.98613   0.58377   0.58383   1.000
    C290    C    0.44514   0.69592   0.60940   1.000
    C291    C    0.94514   0.69592   0.60940   1.000
    C292    C    0.45586   0.57872   0.75286   1.000
    C293    C    0.95585   0.57872   0.75285   1.000
    C294    C    0.44438   0.69986   0.77188   1.000
    C295    C    0.94437   0.69986   0.77187   1.000
    C296    C    0.48942   0.45820   0.68330   1.000
    C297    C    0.98942   0.45820   0.68333   1.000
    C298    C    0.49995   0.40982   0.57179   1.000
    C299    C    0.99995   0.40982   0.57179   1.000
    C300    C    0.09490   0.52794   0.76732   1.000
    C301    C    0.59489   0.52794   0.76730   1.000
    C302    C    0.02496   0.47485   0.84711   1.000
    C303    C    0.52495   0.47486   0.84710   1.000
    C304    C    0.07593   0.66645   0.68765   1.000
    C305    C    0.57592   0.66645   0.68765   1.000
    C306    C    0.10277   0.50926   0.50629   1.000
    C307    C    0.60276   0.50926   0.50629   1.000
    C308    C    0.18575   0.64537   0.70345   1.000
    C309    C    0.68574   0.64537   0.70345   1.000
    C310    C    0.12376   0.51918   0.62620   1.000
    C311    C    0.62375   0.51917   0.62620   1.000
    C312    C    0.26378   0.08354   0.91641   1.000
    C313    C    0.76377   0.08354   0.91641   1.000
    C314    C    0.30312   0.19688   0.89347   1.000
    C315    C    0.80312   0.19688   0.89347   1.000
    C316    C    0.29392   0.07857   0.74741   1.000
    C317    C    0.79392   0.07857   0.74741   1.000
    C318    C    0.30592   0.19990   0.73073   1.000
    C319    C    0.80592   0.19990   0.73073   1.000
    C320    C    0.26053   0.95820   0.81660   1.000
    C321    C    0.76053   0.95820   0.81660   1.000
    C322    C    0.25016   0.90982   0.92818   1.000
    C323    C    0.75015   0.90982   0.92818   1.000
    C324    C    0.15507   0.02786   0.73272   1.000
    C325    C    0.65507   0.02786   0.73272   1.000
    C326    C    0.22507   0.97486   0.65284   1.000
    C327    C    0.72507   0.97486   0.65284   1.000
    C328    C    0.17376   0.16666   0.81269   1.000
    C329    C    0.67375   0.16666   0.81269   1.000
    C330    C    0.14714   0.00929   0.99363   1.000
    C331    C    0.64713   0.00929   0.99363   1.000
    C332    C    0.06424   0.14574   0.79453   1.000
    C333    C    0.56424   0.14574   0.79453   1.000
    C334    C    0.12600   0.01959   0.87373   1.000
    C335    C    0.62599   0.01959   0.87373   1.000
    C336    C    0.48615   0.08380   0.41615   1.000
    C337    C    0.98614   0.08380   0.41615   1.000
    C338    C    0.44518   0.19597   0.39057   1.000
    C339    C    0.94518   0.19597   0.39057   1.000
    C340    C    0.45587   0.07871   0.24710   1.000
    C341    C    0.95587   0.07871   0.24700   1.000
    C342    C    0.44435   0.19986   0.22810   1.000
    C343    C    0.94435   0.19986   0.22810   1.000
    C344    C    0.48947   0.95837   0.31683   1.000
    C345    C    0.98946   0.95837   0.31683   1.000
    C346    C    0.49998   0.90985   0.42831   1.000
    C347    C    0.99997   0.90985   0.42831   1.000
    C348    C    0.09489   0.02791   0.23257   1.000
    C349    C    0.59488   0.02790   0.23257   1.000
    C350    C    0.02488   0.97471   0.15280   1.000
    C351    C    0.52487   0.97471   0.15280   1.000
    C352    C    0.07596   0.16644   0.31230   1.000
    C353    C    0.57595   0.16644   0.31230   1.000
    C354    C    0.10282   0.00927   0.49364   1.000
    C355    C    0.60281   0.00927   0.49364   1.000
    C356    C    0.18575   0.14535   0.29637   1.000
    C357    C    0.68574   0.14535   0.29638   1.000
    C358    C    0.12382   0.01916   0.37369   1.000
    C359    C    0.62381   0.01915   0.37369   1.000
    C360    C    0.26391   0.58266   0.08367   1.000
    C361    C    0.76390   0.58266   0.08367   1.000
    C362    C    0.30563   0.69426   0.10933   1.000
    C363    C    0.80563   0.69426   0.10933   1.000
    C364    C    0.29404   0.57868   0.25277   1.000
    C365    C    0.79403   0.57868   0.25277   1.000
    C366    C    0.30527   0.69992   0.27138   1.000
    C367    C    0.80526   0.69992   0.27138   1.000
    C368    C    0.26045   0.45791   0.18346   1.000
    C369    C    0.76044   0.45791   0.18346   1.000
    C370    C    0.25007   0.40970   0.07182   1.000
    C371    C    0.75006   0.40970   0.07182   1.000
    C372    C    0.15505   0.52796   0.26740   1.000
    C373    C    0.65504   0.52796   0.26740   1.000
    C374    C    0.22510   0.47485   0.34719   1.000
    C375    C    0.72510   0.47486   0.34719   1.000
    C376    C    0.17406   0.66632   0.18704   1.000
    C377    C    0.67405   0.66632   0.18704   1.000
    C378    C    0.14708   0.50935   0.00637   1.000
    C379    C    0.64707   0.50935   0.00637   1.000
    C380    C    0.06430   0.64548   0.20345   1.000
    C381    C    0.56430   0.64548   0.20340   1.000
    C382    C    0.12609   0.51917   0.12631   1.000
    C383    C    0.62608   0.51918   0.12631   1.000
    C384    C    0.01385   0.41622   0.41615   1.000
    C385    C    0.51385   0.41622   0.41615   1.000
    C386    C    0.05485   0.30407   0.39058   1.000
    C387    C    0.55484   0.30407   0.39058   1.000
    C388    C    0.04413   0.42127   0.24713   1.000
    C389    C    0.54413   0.42127   0.24713   1.000
    C390    C    0.05561   0.30013   0.22811   1.000
    C391    C    0.55561   0.30013   0.22811   1.000
    C392    C    0.01057   0.54179   0.31665   1.000
    C393    C    0.51056   0.54179   0.31665   1.000
    C394    C    0.00004   0.59017   0.42819   1.000
    C395    C    0.50003   0.59017   0.42819   1.000
    C396    C    0.40510   0.47206   0.23266   1.000
    C397    C    0.90509   0.47205   0.23266   1.000
    C398    C    0.47504   0.52514   0.15287   1.000
    C399    C    0.97503   0.52514   0.15287   1.000
    C400    C    0.42406   0.33355   0.31234   1.000
    C401    C    0.92406   0.33355   0.31234   1.000
    C402    C    0.39723   0.49073   0.49300   1.000
    C403    C    0.89722   0.49073   0.49370   1.000
    C404    C    0.31425   0.35462   0.29653   1.000
    C405    C    0.81424   0.35462   0.29653   1.000
    C406    C    0.37623   0.48082   0.37374   1.000
    C407    C    0.87623   0.48082   0.37374   1.000
    C408    C    0.23621   0.91646   0.08358   1.000
    C409    C    0.73620   0.91646   0.08358   1.000
    C410    C    0.19687   0.80311   0.10652   1.000
    C411    C    0.69686   0.80311   0.10652   1.000
    C412    C    0.20607   0.92142   0.25258   1.000
    C413    C    0.70606   0.92142   0.25258   1.000
    C414    C    0.19407   0.80009   0.26925   1.000
    C415    C    0.69406   0.80009   0.26925   1.000
    C416    C    0.23946   0.04179   0.18332   1.000
    C417    C    0.73945   0.04179   0.18332   1.000
    C418    C    0.24984   0.09017   0.07180   1.000
    C419    C    0.74983   0.09017   0.07180   1.000
    C420    C    0.34492   0.97213   0.26727   1.000
    C421    C    0.84491   0.97213   0.26727   1.000
    C422    C    0.27492   0.02513   0.34714   1.000
    C423    C    0.77491   0.02513   0.34714   1.000
    C424    C    0.32623   0.83333   0.18729   1.000
    C425    C    0.82622   0.83333   0.18729   1.000
    C426    C    0.35286   0.99070   0.00630   1.000
    C427    C    0.85285   0.99070   0.00630   1.000
    C428    C    0.43575   0.85425   0.20545   1.000
    C429    C    0.93575   0.85425   0.20540   1.000
    C430    C    0.37399   0.98040   0.12626   1.000
    C431    C    0.87399   0.98040   0.12626   1.000
    O432    O    0.69853   0.50467   0.00318   1.000
    O433    O    0.75003   0.45485   0.03591   1.000
    O434    O    0.74995   0.54514   0.96408   1.000
    O435    O    0.80145   0.49532   0.99681   1.000
    O436    O    0.30143   0.99535   0.00315   1.000
    O437    O    0.24992   0.04509   0.03590   1.000
    O438    O    0.25008   0.95491   0.96409   1.000
    O439    O    0.19857   0.00465   0.99682   1.000
    O440    O    0.80142   0.99535   0.00315   1.000
    O441    O    0.74991   0.04509   0.03590   1.000
    O442    O    0.75007   0.95491   0.96409   1.000
    O443    O    0.69856   0.00464   0.99682   1.000
    O444    O    0.87186   0.98893   0.03296   1.000
    O445    O    0.37187   0.98893   0.03296   1.000
    O446    O    0.62809   0.51101   0.03302   1.000
    O447    O    0.12810   0.51101   0.03302   1.000
    O448    O    0.19854   0.50467   0.00318   1.000
    O449    O    0.68535   0.86181   0.04532   1.000
    O450    O    0.18535   0.86181   0.04533   1.000
    O451    O    0.31615   0.63670   0.04682   1.000
    O452    O    0.81614   0.63670   0.04682   1.000
    O453    O    0.41773   0.98884   0.05453   1.000
    O454    O    0.91772   0.98885   0.05453   1.000
    O455    O    0.58226   0.51102   0.05458   1.000
    O456    O    0.08226   0.51102   0.05458   1.000
    O457    O    0.38244   0.98378   0.09294   1.000
    O458    O    0.88243   0.98378   0.09294   1.000
    O459    O    0.61760   0.51592   0.09298   1.000
    O460    O    0.11760   0.51593   0.09298   1.000
    O461    O    0.21837   0.88816   0.07676   1.000
    O462    O    0.19870   0.83149   0.08823   1.000
    O463    O    0.71837   0.88817   0.07676   1.000
    O464    O    0.69870   0.83149   0.08823   1.000
    O465    O    0.28240   0.61059   0.07752   1.000
    O466    O    0.30327   0.66639   0.09035   1.000
    O467    O    0.78239   0.61059   0.07752   1.000
    O468    O    0.80326   0.66639   0.09035   1.000
    O469    O    0.24369   0.09231   0.10479   1.000
    O470    O    0.74368   0.09231   0.10479   1.000
    O471    O    0.25623   0.40752   0.10480   1.000
    O472    O    0.25003   0.45485   0.03591   1.000
    O473    O    0.75622   0.40752   0.10480   1.000
    O474    O    0.26106   0.92702   0.13085   1.000
    O475    O    0.76105   0.92702   0.13085   1.000
    O476    O    0.23902   0.57242   0.13094   1.000
    O477    O    0.73901   0.57242   0.13094   1.000
    O478    O    0.22355   0.77644   0.14730   1.000
    O479    O    0.72354   0.77644   0.14730   1.000
    O480    O    0.27793   0.72202   0.14871   1.000
    O481    O    0.77792   0.72202   0.14871   1.000
    O482    O    0.40765   0.97304   0.17090   1.000
    O483    O    0.90764   0.97304   0.17090   1.000
    O484    O    0.59239   0.52672   0.17089   1.000
    O485    O    0.09240   0.52672   0.17089   1.000
    O486    O    0.10099   0.99511   0.15248   1.000
    O487    O    0.60098   0.99511   0.15248   1.000
    O488    O    0.89895   0.50465   0.15250   1.000
    O489    O    0.39896   0.50466   0.15250   1.000
    O490    O    0.73067   0.12122   0.14901   1.000
    O491    O    0.73850   0.06812   0.16054   1.000
    O492    O    0.23068   0.12122   0.14901   1.000
    O493    O    0.23850   0.06812   0.16054   1.000
    O494    O    0.76927   0.37857   0.14899   1.000
    O495    O    0.76141   0.43163   0.16062   1.000
    O496    O    0.26928   0.37857   0.14899   1.000
    O497    O    0.26142   0.43163   0.16062   1.000
    O498    O    0.05275   0.98629   0.16242   1.000
    O499    O    0.98309   0.97020   0.18418   1.000
    O500    O    0.55275   0.98629   0.16242   1.000
    O501    O    0.48309   0.97020   0.18418   1.000
    O502    O    0.94717   0.51356   0.16248   1.000
    O503    O    0.01687   0.52970   0.18417   1.000
    O504    O    0.44718   0.51356   0.16248   1.000
    O505    O    0.51687   0.52970   0.18417   1.000
    O506    O    0.58775   0.01289   0.20231   1.000
    O507    O    0.08776   0.01288   0.20231   1.000
    O508    O    0.91220   0.48702   0.20237   1.000
    O509    O    0.41221   0.48702   0.20237   1.000
    O510    O    0.41340   0.12880   0.19376   1.000
    O511    O    0.91339   0.12880   0.19377   1.000
    O512    O    0.58656   0.37119   0.19379   1.000
    O513    O    0.08656   0.37119   0.19379   1.000
    O514    O    0.30607   0.88546   0.18271   1.000
    O515    O    0.24599   0.92951   0.21536   1.000
    O516    O    0.31542   0.95486   0.22270   1.000
    O517    O    0.80606   0.88546   0.18271   1.000
    O518    O    0.74598   0.92951   0.21536   1.000
    O519    O    0.81541   0.95486   0.22270   1.000
    O520    O    0.69409   0.61425   0.18263   1.000
    O521    O    0.75408   0.57043   0.21549   1.000
    O522    O    0.68458   0.54507   0.22281   1.000
    O523    O    0.19409   0.61425   0.18263   1.000
    O524    O    0.25408   0.57043   0.21549   1.000
    O525    O    0.18459   0.54507   0.22281   1.000
    O526    O    0.21536   0.03801   0.23394   1.000
    O527    O    0.71536   0.03801   0.23394   1.000
    O528    O    0.78458   0.46184   0.23401   1.000
    O529    O    0.28459   0.46184   0.23401   1.000
    O530    O    0.64364   0.67612   0.19015   1.000
    O531    O    0.14365   0.67612   0.19015   1.000
    O532    O    0.85659   0.82353   0.19100   1.000
    O533    O    0.35659   0.82353   0.19100   1.000
    O534    O    0.22215   0.77493   0.22867   1.000
    O535    O    0.27775   0.72485   0.22973   1.000
    O536    O    0.72214   0.77493   0.22867   1.000
    O537    O    0.77774   0.72485   0.22973   1.000
    O538    O    0.10860   0.71533   0.19105   1.000
    O539    O    0.60860   0.71533   0.19105   1.000
    O540    O    0.39159   0.78431   0.19285   1.000
    O541    O    0.89159   0.78431   0.19286   1.000
    O542    O    0.08877   0.66570   0.19835   1.000
    O543    O    0.58876   0.66570   0.19833   1.000
    O544    O    0.41135   0.83399   0.20008   1.000
    O545    O    0.91135   0.83399   0.20005   1.000
    O546    O    0.56150   0.58987   0.20943   1.000
    O547    O    0.06151   0.58987   0.20946   1.000
    O548    O    0.93852   0.90997   0.21047   1.000
    O549    O    0.43853   0.90997   0.21050   1.000
    O550    O    0.43796   0.16727   0.22170   1.000
    O551    O    0.44372   0.10669   0.23120   1.000
    O552    O    0.93795   0.16727   0.22171   1.000
    O553    O    0.94371   0.10669   0.23115   1.000
    O554    O    0.56201   0.33272   0.22172   1.000
    O555    O    0.55627   0.39329   0.23123   1.000
    O556    O    0.06202   0.33272   0.22173   1.000
    O557    O    0.05628   0.39329   0.23123   1.000
    O558    O    0.53463   0.53803   0.26606   1.000
    O559    O    0.03464   0.53803   0.26606   1.000
    O560    O    0.46539   0.96203   0.26619   1.000
    O561    O    0.96538   0.96203   0.26619   1.000
    O562    O    0.47217   0.22494   0.26891   1.000
    O563    O    0.97217   0.22494   0.26891   1.000
    O564    O    0.02781   0.27507   0.26891   1.000
    O565    O    0.52780   0.27507   0.26891   1.000
    O566    O    0.56535   0.04514   0.27720   1.000
    O567    O    0.06536   0.04514   0.27720   1.000
    O568    O    0.43464   0.45486   0.27724   1.000
    O569    O    0.93463   0.45486   0.27724   1.000
    O570    O    0.99585   0.07054   0.28442   1.000
    O571    O    0.49585   0.07054   0.28447   1.000
    O572    O    0.50416   0.42947   0.28447   1.000
    O573    O    0.00415   0.42947   0.28447   1.000
    O574    O    0.19380   0.89324   0.26795   1.000
    O575    O    0.69379   0.89324   0.26795   1.000
    O576    O    0.30606   0.60675   0.26864   1.000
    O577    O    0.80606   0.60675   0.26864   1.000
    O578    O    0.83780   0.98712   0.29756   1.000
    O579    O    0.33780   0.98712   0.29756   1.000
    O580    O    0.16219   0.51295   0.29768   1.000
    O581    O    0.66218   0.51295   0.29768   1.000
    O582    O    0.18780   0.83257   0.27629   1.000
    O583    O    0.68779   0.83257   0.27629   1.000
    O584    O    0.31168   0.66736   0.27794   1.000
    O585    O    0.81167   0.66736   0.27794   1.000
    O586    O    0.66339   0.87065   0.30467   1.000
    O587    O    0.16340   0.87065   0.30496   1.000
    O588    O    0.33613   0.62899   0.30620   1.000
    O589    O    0.83612   0.62899   0.30620   1.000
    O590    O    0.81148   0.41020   0.29054   1.000
    O591    O    0.76691   0.47031   0.31587   1.000
    O592    O    0.84247   0.47329   0.32915   1.000
    O593    O    0.31149   0.41020   0.29054   1.000
    O594    O    0.26691   0.47031   0.31587   1.000
    O595    O    0.34248   0.47329   0.32915   1.000
    O596    O    0.18851   0.08979   0.29046   1.000
    O597    O    0.23309   0.02968   0.31585   1.000
    O598    O    0.15754   0.02670   0.32913   1.000
    O599    O    0.68850   0.08979   0.29047   1.000
    O600    O    0.73309   0.02968   0.31585   1.000
    O601    O    0.65753   0.02669   0.32913   1.000
    O602    O    0.16126   0.16566   0.30124   1.000
    O603    O    0.66126   0.16566   0.30124   1.000
    O604    O    0.83873   0.33432   0.30127   1.000
    O605    O    0.33874   0.33432   0.30136   1.000
    O606    O    0.85863   0.28461   0.30806   1.000
    O607    O    0.89364   0.32378   0.30917   1.000
    O608    O    0.64136   0.21538   0.30798   1.000
    O609    O    0.60636   0.17620   0.30921   1.000
    O610    O    0.14137   0.21538   0.30795   1.000
    O611    O    0.10637   0.17620   0.30921   1.000
    O612    O    0.35864   0.28461   0.30816   1.000
    O613    O    0.39365   0.32378   0.30927   1.000
    O614    O    0.47259   0.22299   0.35014   1.000
    O615    O    0.52742   0.27704   0.35015   1.000
    O616    O    0.97259   0.22300   0.35014   1.000
    O617    O    0.02743   0.27705   0.35015   1.000
    O618    O    0.55589   0.11440   0.31707   1.000
    O619    O    0.05590   0.11440   0.31707   1.000
    O620    O    0.44412   0.38560   0.31708   1.000
    O621    O    0.94412   0.38561   0.31708   1.000
    O622    O    0.51145   0.56812   0.33944   1.000
    O623    O    0.01146   0.56812   0.33944   1.000
    O624    O    0.98860   0.93201   0.33957   1.000
    O625    O    0.48860   0.93201   0.33957   1.000
    O626    O    0.98902   0.42694   0.36899   1.000
    O627    O    0.48902   0.42694   0.36899   1.000
    O628    O    0.01099   0.07309   0.36900   1.000
    O629    O    0.51099   0.07309   0.36900   1.000
    O630    O    0.80280   0.01361   0.33749   1.000
    O631    O    0.85108   0.00487   0.34737   1.000
    O632    O    0.30280   0.01361   0.33749   1.000
    O633    O    0.35108   0.00487   0.34737   1.000
    O634    O    0.69721   0.48640   0.33757   1.000
    O635    O    0.64895   0.49519   0.34750   1.000
    O636    O    0.19722   0.48640   0.33757   1.000
    O637    O    0.14896   0.49519   0.34750   1.000
    O638    O    0.98099   0.87888   0.35101   1.000
    O639    O    0.48099   0.87888   0.35101   1.000
    O640    O    0.01914   0.62122   0.35098   1.000
    O641    O    0.51913   0.62122   0.35098   1.000
    O642    O    0.50618   0.59231   0.39521   1.000
    O643    O    0.00619   0.59231   0.39521   1.000
    O644    O    0.99385   0.90774   0.39532   1.000
    O645    O    0.49386   0.90774   0.39532   1.000
    O646    O    0.13229   0.01588   0.40702   1.000
    O647    O    0.63229   0.01588   0.40702   1.000
    O648    O    0.36775   0.48410   0.40705   1.000
    O649    O    0.86774   0.48410   0.40705   1.000
    O650    O    0.44744   0.16808   0.40954   1.000
    O651    O    0.94744   0.16808   0.40954   1.000
    O652    O    0.55257   0.33195   0.40956   1.000
    O653    O    0.05258   0.33196   0.40956   1.000
    O654    O    0.96792   0.11199   0.42234   1.000
    O655    O    0.53207   0.38803   0.42235   1.000
    O656    O    0.03208   0.38803   0.42235   1.000
    O657    O    0.46793   0.11199   0.42234   1.000
    O658    O    0.00002   0.54508   0.46409   1.000
    O659    O    0.50001   0.54508   0.46409   1.000
    O660    O    0.99998   0.95492   0.46415   1.000
    O661    O    0.49998   0.95492   0.46415   1.000
    O662    O    0.43462   0.13858   0.45322   1.000
    O663    O    0.93462   0.13858   0.45322   1.000
    O664    O    0.06538   0.36144   0.45325   1.000
    O665    O    0.56537   0.36144   0.45326   1.000
    O666    O    0.16763   0.01090   0.44544   1.000
    O667    O    0.12179   0.01094   0.46700   1.000
    O668    O    0.66762   0.01090   0.44544   1.000
    O669    O    0.62179   0.01094   0.46700   1.000
    O670    O    0.33241   0.48908   0.44543   1.000
    O671    O    0.37825   0.48906   0.46668   1.000
    O672    O    0.83241   0.48908   0.44543   1.000
    O673    O    0.87824   0.48906   0.46703   1.000
    O674    O    0.44861   0.49537   0.49649   1.000
    O675    O    0.05141   0.00464   0.49682   1.000
    O676    O    0.55140   0.00464   0.49682   1.000
    O677    O    0.94861   0.49536   0.49684   1.000
    O678    O    0.94859   0.99536   0.50317   1.000
    O679    O    0.00001   0.04507   0.53583   1.000
    O680    O    0.44859   0.99536   0.50317   1.000
    O681    O    0.50000   0.04507   0.53583   1.000
    O682    O    0.55138   0.50463   0.50314   1.000
    O683    O    0.49997   0.45491   0.53589   1.000
    O684    O    0.05138   0.50463   0.50314   1.000
    O685    O    0.99997   0.45491   0.53589   1.000
    O686    O    0.62174   0.51094   0.53295   1.000
    O687    O    0.12175   0.51094   0.53295   1.000
    O688    O    0.37820   0.98906   0.53299   1.000
    O689    O    0.87819   0.98906   0.53299   1.000
    O690    O    0.43461   0.63856   0.54672   1.000
    O691    O    0.93461   0.63856   0.54672   1.000
    O692    O    0.56537   0.86141   0.54677   1.000
    O693    O    0.06538   0.86141   0.54677   1.000
    O694    O    0.33236   0.98909   0.55451   1.000
    O695    O    0.83236   0.98909   0.55451   1.000
    O696    O    0.66757   0.51092   0.55455   1.000
    O697    O    0.16758   0.51092   0.55455   1.000
    O698    O    0.13224   0.51590   0.59291   1.000
    O699    O    0.63223   0.51590   0.59291   1.000
    O700    O    0.36770   0.98411   0.59296   1.000
    O701    O    0.86769   0.98411   0.59296   1.000
    O702    O    0.96791   0.61196   0.57763   1.000
    O703    O    0.94741   0.66804   0.59042   1.000
    O704    O    0.46792   0.61196   0.57763   1.000
    O705    O    0.44742   0.66804   0.59042   1.000
    O706    O    0.53206   0.88800   0.57765   1.000
    O707    O    0.55254   0.83192   0.59044   1.000
    O708    O    0.03207   0.88800   0.57765   1.000
    O709    O    0.05255   0.83192   0.59043   1.000
    O710    O    0.50613   0.09225   0.60467   1.000
    O711    O    0.00613   0.09225   0.60467   1.000
    O712    O    0.49380   0.40769   0.60477   1.000
    O713    O    0.99380   0.40769   0.60477   1.000
    O714    O    0.51097   0.57305   0.63096   1.000
    O715    O    0.01097   0.57305   0.63096   1.000
    O716    O    0.48900   0.92691   0.63099   1.000
    O717    O    0.98900   0.92691   0.63099   1.000
    O718    O    0.02740   0.77700   0.64984   1.000
    O719    O    0.97256   0.72295   0.64984   1.000
    O720    O    0.47257   0.72295   0.64984   1.000
    O721    O    0.52740   0.77700   0.64984   1.000
    O722    O    0.65751   0.52670   0.67081   1.000
    O723    O    0.15751   0.52670   0.67081   1.000
    O724    O    0.34245   0.97330   0.67085   1.000
    O725    O    0.84244   0.97330   0.67085   1.000
    O726    O    0.85103   0.50481   0.65248   1.000
    O727    O    0.35104   0.50481   0.65248   1.000
    O728    O    0.14891   0.99512   0.65261   1.000
    O729    O    0.64890   0.99512   0.65261   1.000
    O730    O    0.01900   0.12111   0.64897   1.000
    O731    O    0.01139   0.06799   0.66038   1.000
    O732    O    0.51899   0.12111   0.64897   1.000
    O733    O    0.51138   0.06799   0.66038   1.000
    O734    O    0.98084   0.37877   0.64900   1.000
    O735    O    0.98853   0.43187   0.66054   1.000
    O736    O    0.48085   0.37877   0.64900   1.000
    O737    O    0.48854   0.43187   0.66052   1.000
    O738    O    0.80277   0.51359   0.66201   1.000
    O739    O    0.73307   0.52968   0.68371   1.000
    O740    O    0.30278   0.51359   0.66201   1.000
    O741    O    0.23308   0.52968   0.68371   1.000
    O742    O    0.19719   0.98638   0.66248   1.000
    O743    O    0.26690   0.97031   0.68413   1.000
    O744    O    0.69718   0.98638   0.66248   1.000
    O745    O    0.76689   0.97031   0.68413   1.000
    O746    O    0.83780   0.48704   0.70230   1.000
    O747    O    0.33781   0.48704   0.70230   1.000
    O748    O    0.66385   0.37100   0.69379   1.000
    O749    O    0.16386   0.37100   0.69379   1.000
    O750    O    0.16219   0.01287   0.70242   1.000
    O751    O    0.66218   0.01287   0.70242   1.000
    O752    O    0.33660   0.12934   0.69503   1.000
    O753    O    0.83660   0.12934   0.69503   1.000
    O754    O    0.05587   0.61439   0.68288   1.000
    O755    O    0.99583   0.57052   0.71548   1.000
    O756    O    0.06535   0.54513   0.72271   1.000
    O757    O    0.55586   0.61439   0.68288   1.000
    O758    O    0.49583   0.57052   0.71548   1.000
    O759    O    0.56535   0.54513   0.72270   1.000
    O760    O    0.94409   0.88559   0.68291   1.000
    O761    O    0.00414   0.92945   0.71551   1.000
    O762    O    0.93463   0.95486   0.72278   1.000
    O763    O    0.44410   0.88559   0.68291   1.000
    O764    O    0.50414   0.92945   0.71551   1.000
    O765    O    0.43463   0.95486   0.72278   1.000
    O766    O    0.03460   0.03796   0.73377   1.000
    O767    O    0.53460   0.03796   0.73377   1.000
    O768    O    0.46535   0.46196   0.73391   1.000
    O769    O    0.96534   0.46196   0.73393   1.000
    O770    O    0.60634   0.67621   0.69072   1.000
    O771    O    0.10634   0.67621   0.69072   1.000
    O772    O    0.89362   0.82379   0.69034   1.000
    O773    O    0.39362   0.82379   0.69079   1.000
    O774    O    0.64134   0.71539   0.69179   1.000
    O775    O    0.14135   0.71539   0.69184   1.000
    O776    O    0.85862   0.78461   0.69159   1.000
    O777    O    0.35863   0.78461   0.69204   1.000
    O778    O    0.52781   0.77505   0.73108   1.000
    O779    O    0.47219   0.72492   0.73108   1.000
    O780    O    0.97218   0.72492   0.73107   1.000
    O781    O    0.02781   0.77505   0.73108   1.000
    O782    O    0.83872   0.83433   0.69831   1.000
    O783    O    0.66125   0.66567   0.69862   1.000
    O784    O    0.16125   0.66567   0.69862   1.000
    O785    O    0.33873   0.83433   0.69876   1.000
    O786    O    0.68850   0.58980   0.70944   1.000
    O787    O    0.18851   0.58980   0.70944   1.000
    O788    O    0.31148   0.91020   0.70952   1.000
    O789    O    0.81148   0.91020   0.70952   1.000
    O790    O    0.78462   0.96198   0.76601   1.000
    O791    O    0.28463   0.96198   0.76601   1.000
    O792    O    0.71540   0.53815   0.76598   1.000
    O793    O    0.21541   0.53815   0.76598   1.000
    O794    O    0.68831   0.33263   0.72204   1.000
    O795    O    0.69392   0.39325   0.73135   1.000
    O796    O    0.18831   0.33263   0.72204   1.000
    O797    O    0.19393   0.39325   0.73135   1.000
    O798    O    0.81219   0.16742   0.72369   1.000
    O799    O    0.80619   0.10675   0.73203   1.000
    O800    O    0.31220   0.16742   0.72369   1.000
    O801    O    0.30620   0.10675   0.73203   1.000
    O802    O    0.72224   0.27515   0.77025   1.000
    O803    O    0.22224   0.27515   0.77025   1.000
    O804    O    0.77784   0.22506   0.77131   1.000
    O805    O    0.27785   0.22506   0.77131   1.000
    O806    O    0.31540   0.45492   0.77718   1.000
    O807    O    0.81540   0.45492   0.77718   1.000
    O808    O    0.18458   0.04513   0.77726   1.000
    O809    O    0.68457   0.04513   0.77726   1.000
    O810    O    0.74590   0.42956   0.78449   1.000
    O811    O    0.24591   0.42956   0.78449   1.000
    O812    O    0.75400   0.07048   0.78460   1.000
    O813    O    0.25400   0.07048   0.78460   1.000
    O814    O    0.94371   0.60670   0.76875   1.000
    O815    O    0.44372   0.60670   0.76875   1.000
    O816    O    0.55627   0.89330   0.76879   1.000
    O817    O    0.05627   0.89330   0.76879   1.000
    O818    O    0.58778   0.51297   0.79760   1.000
    O819    O    0.08778   0.51297   0.79762   1.000
    O820    O    0.41224   0.98711   0.79768   1.000
    O821    O    0.91223   0.98711   0.79768   1.000
    O822    O    0.93797   0.66727   0.77826   1.000
    O823    O    0.06203   0.83273   0.77828   1.000
    O824    O    0.56203   0.83273   0.77828   1.000
    O825    O    0.43798   0.66727   0.77826   1.000
    O826    O    0.56146   0.09002   0.78948   1.000
    O827    O    0.51690   0.02980   0.81577   1.000
    O828    O    0.59233   0.02695   0.82908   1.000
    O829    O    0.06146   0.09002   0.78948   1.000
    O830    O    0.01689   0.02980   0.81577   1.000
    O831    O    0.09234   0.02695   0.82908   1.000
    O832    O    0.43848   0.41012   0.79053   1.000
    O833    O    0.48311   0.47029   0.81581   1.000
    O834    O    0.40759   0.47327   0.82909   1.000
    O835    O    0.93848   0.41012   0.79053   1.000
    O836    O    0.98311   0.47029   0.81582   1.000
    O837    O    0.90759   0.47327   0.82909   1.000
    O838    O    0.91342   0.62880   0.80619   1.000
    O839    O    0.41343   0.62880   0.80619   1.000
    O840    O    0.58658   0.87119   0.80622   1.000
    O841    O    0.08659   0.87119   0.80622   1.000
    O842    O    0.08864   0.16600   0.79990   1.000
    O843    O    0.58863   0.16600   0.79990   1.000
    O844    O    0.91122   0.33429   0.80163   1.000
    O845    O    0.41123   0.33429   0.80163   1.000
    O846    O    0.60839   0.21568   0.80713   1.000
    O847    O    0.64339   0.17646   0.80899   1.000
    O848    O    0.10840   0.21568   0.80713   1.000
    O849    O    0.14340   0.17646   0.80899   1.000
    O850    O    0.39139   0.28467   0.80893   1.000
    O851    O    0.35635   0.32387   0.80981   1.000
    O852    O    0.89138   0.28467   0.80893   1.000
    O853    O    0.85634   0.32387   0.80981   1.000
    O854    O    0.22206   0.27798   0.85128   1.000
    O855    O    0.27645   0.22355   0.85269   1.000
    O856    O    0.72206   0.27798   0.85128   1.000
    O857    O    0.77644   0.22355   0.85269   1.000
    O858    O    0.69392   0.11453   0.81724   1.000
    O859    O    0.19392   0.11453   0.81724   1.000
    O860    O    0.80589   0.38574   0.81733   1.000
    O861    O    0.30590   0.38574   0.81733   1.000
    O862    O    0.73857   0.56837   0.83936   1.000
    O863    O    0.23858   0.56837   0.83936   1.000
    O864    O    0.26149   0.93187   0.83940   1.000
    O865    O    0.76148   0.93187   0.83940   1.000
    O866    O    0.76097   0.42757   0.86904   1.000
    O867    O    0.26098   0.42757   0.86904   1.000
    O868    O    0.23893   0.07297   0.86911   1.000
    O869    O    0.73892   0.07297   0.86911   1.000
    O870    O    0.05281   0.48643   0.83751   1.000
    O871    O    0.10104   0.49534   0.84749   1.000
    O872    O    0.55281   0.48643   0.83751   1.000
    O873    O    0.60103   0.49534   0.84746   1.000
    O874    O    0.94723   0.01371   0.83753   1.000
    O875    O    0.89900   0.00489   0.84750   1.000
    O876    O    0.44724   0.01371   0.83753   1.000
    O877    O    0.39901   0.00489   0.84750   1.000
    O878    O    0.26931   0.87878   0.85097   1.000
    O879    O    0.76930   0.87878   0.85097   1.000
    O880    O    0.73070   0.62143   0.85099   1.000
    O881    O    0.23071   0.62143   0.85099   1.000
    O882    O    0.74376   0.59247   0.89518   1.000
    O883    O    0.75630   0.90768   0.89519   1.000
    O884    O    0.25630   0.90768   0.89519   1.000
    O885    O    0.24377   0.59247   0.89518   1.000
    O886    O    0.38239   0.48407   0.90699   1.000
    O887    O    0.88238   0.48407   0.90699   1.000
    O888    O    0.61755   0.01622   0.90705   1.000
    O889    O    0.11756   0.01622   0.90705   1.000
    O890    O    0.19673   0.33360   0.90963   1.000
    O891    O    0.69672   0.33360   0.90963   1.000
    O892    O    0.80128   0.16850   0.91176   1.000
    O893    O    0.30129   0.16850   0.91176   1.000
    O894    O    0.21759   0.38940   0.92245   1.000
    O895    O    0.71758   0.38940   0.92245   1.000
    O896    O    0.28162   0.11183   0.92323   1.000
    O897    O    0.78161   0.11183   0.92323   1.000
    O898    O    0.24996   0.54514   0.96408   1.000
    O899    O    0.68384   0.36330   0.95315   1.000
    O900    O    0.18384   0.36330   0.95315   1.000
    O901    O    0.81463   0.13818   0.95466   1.000
    O902    O    0.31464   0.13818   0.95462   1.000
    O903    O    0.91772   0.48898   0.94540   1.000
    O904    O    0.87188   0.48898   0.96697   1.000
    O905    O    0.41773   0.48898   0.94540   1.000
    O906    O    0.37189   0.48898   0.96697   1.000
    O907    O    0.08227   0.01115   0.94546   1.000
    O908    O    0.12813   0.01107   0.96700   1.000
    O909    O    0.58226   0.01115   0.94546   1.000
    O910    O    0.62812   0.01107   0.96700   1.000
    O911    O    0.30145   0.49532   0.99681   1.000
    O912    O    0.00692   0.95810   0.54192   1.000
    O913    O    0.50692   0.95810   0.54192   1.000
    O914    O    0.05140   0.97780   0.76866   1.000
    O915    O    0.55139   0.97780   0.76866   1.000
    O916    O    0.98734   0.98962   0.68062   1.000
    O917    O    0.48734   0.98962   0.68062   1.000
    O918    O    0.35692   0.96892   0.74142   1.000
    O919    O    0.85691   0.96892   0.74142   1.000
    O920    O    0.46201   0.79176   0.68898   1.000
    O921    O    0.96201   0.79176   0.68898   1.000
    O922    O    0.42017   0.95923   0.65221   1.000
    O923    O    0.92016   0.95923   0.65221   1.000
    O924    O    0.24304   0.45867   0.95814   1.000
    O925    O    0.74304   0.45867   0.95815   1.000
    O926    O    0.19861   0.47777   0.73132   1.000
    O927    O    0.69861   0.47777   0.73132   1.000
    O928    O    0.26271   0.48994   0.81915   1.000
    O929    O    0.76270   0.48994   0.81915   1.000
    O930    O    0.39311   0.46888   0.75855   1.000
    O931    O    0.89311   0.46888   0.75855   1.000
    O932    O    0.28785   0.29195   0.81240   1.000
    O933    O    0.78784   0.29195   0.81240   1.000
    O934    O    0.32988   0.45931   0.84772   1.000
    O935    O    0.82988   0.45931   0.84772   1.000
    O936    O    0.49307   0.54189   0.54191   1.000
    O937    O    0.99307   0.54189   0.54191   1.000
    O938    O    0.44857   0.52222   0.76869   1.000
    O939    O    0.94856   0.52222   0.76869   1.000
    O940    O    0.51261   0.51026   0.68070   1.000
    O941    O    0.01261   0.51026   0.68072   1.000
    O942    O    0.14308   0.53108   0.74137   1.000
    O943    O    0.64307   0.53108   0.74137   1.000
    O944    O    0.03796   0.70821   0.68896   1.000
    O945    O    0.53796   0.70821   0.68896   1.000
    O946    O    0.07978   0.54075   0.65215   1.000
    O947    O    0.57978   0.54075   0.65215   1.000
    O948    O    0.25689   0.04177   0.95820   1.000
    O949    O    0.75688   0.04177   0.95820   1.000
    O950    O    0.30133   0.02216   0.73142   1.000
    O951    O    0.80132   0.02216   0.73142   1.000
    O952    O    0.23731   0.01030   0.81920   1.000
    O953    O    0.73730   0.01030   0.81920   1.000
    O954    O    0.10688   0.03108   0.75857   1.000
    O955    O    0.60687   0.03108   0.75857   1.000
    O956    O    0.21176   0.20844   0.81229   1.000
    O957    O    0.71176   0.20844   0.81229   1.000
    O958    O    0.17004   0.04099   0.84776   1.000
    O959    O    0.67003   0.04100   0.84776   1.000
    O960    O    0.49307   0.04190   0.45807   1.000
    O961    O    0.99307   0.04190   0.45807   1.000
    O962    O    0.44859   0.02220   0.23133   1.000
    O963    O    0.94858   0.02220   0.23127   1.000
    O964    O    0.51265   0.01037   0.31933   1.000
    O965    O    0.01265   0.01037   0.31933   1.000
    O966    O    0.14308   0.03107   0.25856   1.000
    O967    O    0.64307   0.03107   0.25856   1.000
    O968    O    0.03798   0.20823   0.31101   1.000
    O969    O    0.53797   0.20823   0.31101   1.000
    O970    O    0.07982   0.04076   0.34776   1.000
    O971    O    0.57982   0.04076   0.34776   1.000
    O972    O    0.25695   0.54133   0.04183   1.000
    O973    O    0.75694   0.54133   0.04183   1.000
    O974    O    0.30138   0.52222   0.26866   1.000
    O975    O    0.80137   0.52222   0.26866   1.000
    O976    O    0.23729   0.51005   0.18083   1.000
    O977    O    0.73728   0.51005   0.18083   1.000
    O978    O    0.10688   0.53111   0.24144   1.000
    O979    O    0.60687   0.53111   0.24144   1.000
    O980    O    0.21214   0.70805   0.18756   1.000
    O981    O    0.71214   0.70805   0.18756   1.000
    O982    O    0.17011   0.54068   0.15226   1.000
    O983    O    0.67010   0.54068   0.15226   1.000
    O984    O    0.00693   0.45811   0.45807   1.000
    O985    O    0.50692   0.45811   0.45807   1.000
    O986    O    0.05142   0.47777   0.23130   1.000
    O987    O    0.55142   0.47777   0.23130   1.000
    O988    O    0.98737   0.48973   0.31923   1.000
    O989    O    0.48737   0.48973   0.31923   1.000
    O990    O    0.35691   0.46891   0.25861   1.000
    O991    O    0.85690   0.46891   0.25861   1.000
    O992    O    0.46203   0.29178   0.31103   1.000
    O993    O    0.96203   0.29178   0.31103   1.000
    O994    O    0.42021   0.45924   0.34778   1.000
    O995    O    0.92020   0.45924   0.34778   1.000
    O996    O    0.24310   0.95823   0.04179   1.000
    O997    O    0.74310   0.95823   0.04179   1.000
    O998    O    0.19867   0.97783   0.26857   1.000
    O999    O    0.69866   0.97783   0.26857   1.000
    O1000   O    0.26269   0.98969   0.18072   1.000
    O1001   O    0.76268   0.98969   0.18072   1.000
    O1002   O    0.39311   0.96891   0.24141   1.000
    O1003   O    0.89311   0.96891   0.24141   1.000
    O1004   O    0.28823   0.79155   0.18768   1.000
    O1005   O    0.78822   0.79155   0.18768   1.000
    O1006   O    0.32995   0.95900   0.15219   1.000
    O1007   O    0.82994   0.95900   0.15219   1.000
loop_
    _geom_bond_atom_site_label_1
    _geom_bond_atom_site_label_2
    _geom_bond_distance
    _geom_bond_site_symmetry_2
    _ccdc_geom_bond_type
    C43    O432      1.04745      .   S
    C379   O432      1.04745      .   S
    C43    O433      1.06533      .   S
    C371   O433      1.06533      .   S
    C43    O434      1.06546  1_554   S
    C275   O434      1.06546      .   S
    C43    O435      1.04743  1_554   S
    C283   O435      1.04743      .   S
    C46    O436      1.04676  1_545   S
    C426   O436      1.04676      .   S
    C46    O437      1.06438      .   S
    C418   O437      1.06438      .   S
    C46    O438      1.06456  1_544   S
    C322   O438      1.06456      .   S
    C46    O439      1.04678  1_554   S
    C330   O439      1.04678      .   S
    C47    O440      1.04675  1_545   S
    C427   O440      1.04675      .   S
    C47    O441      1.06438      .   S
    C419   O441      1.06438      .   S
    C47    O442      1.06456  1_544   S
    C323   O442      1.06456      .   S
    C47    O443      1.04679  1_554   S
    C331   O443      1.04679      .   S
    C427   O444      0.62733      .   S
    C239   O444      0.62733      .   S
    C426   O445      0.62733      .   S
    C238   O445      0.62733      .   S
    C379   O446      0.62686      .   S
    C215   O446      0.62686      .   S
    C378   O447      0.62687      .   S
    C214   O447      0.62687      .   S
    C378   O448      1.04743      .   S
    C42    O448      1.04743  1_556   S
    C133   O449      0.55147      .   S
    C229   O449      0.55147      .   S
    C132   O450      0.55131      .   S
    C228   O450      0.55131      .   S
    C108   O451      0.55130      .   S
    C204   O451      0.55130      .   S
    C109   O452      0.55129      .   S
    C205   O452      0.55129      .   S
    C142   O453      0.55288      .   S
    C238   O453      0.55288      .   S
    C143   O454      0.55288      .   S
    C239   O454      0.55288      .   S
    C119   O455      0.55291      .   S
    C215   O455      0.55291      .   S
    C118   O456      0.55290      .   S
    C214   O456      0.55290      .   S
    C238   O457      0.64414      .   S
    C430   O457      0.64414      .   S
    C239   O458      0.64414      .   S
    C431   O458      0.64414      .   S
    C215   O459      0.64410      .   S
    C383   O459      0.64410      .   S
    C214   O460      0.64409      .   S
    C382   O460      0.64409      .   S
    C228   O461      0.64690      .   S
    C408   O461      0.64690      .   S
    C228   O462      0.62431      .   S
    C410   O462      0.62431      .   S
    C229   O463      0.64689      .   S
    C409   O463      0.64689      .   S
    C229   O464      0.62431      .   S
    C411   O464      0.62431      .   S
    C204   O465      0.64695      .   S
    C360   O465      0.64695      .   S
    C204   O466      0.62419      .   S
    C362   O466      0.62419      .   S
    C205   O467      0.64695      .   S
    C361   O467      0.64695      .   S
    C205   O468      0.62420      .   S
    C363   O468      0.62420      .   S
    C418   O469      0.62543      .   S
    C232   O469      0.62543      .   S
    C419   O470      0.62543      .   S
    C233   O470      0.62543      .   S
    C370   O471      0.62534      .   S
    C208   O471      0.62534      .   S
    C370   O472      1.06540      .   S
    C42    O472      1.06540  1_556   S
    C371   O473      0.62533      .   S
    C209   O473      0.62533      .   S
    C408   O474      1.02929      .   S
    C28    O474      1.02929      .   S
    C409   O475      1.02929      .   S
    C29    O475      1.02929      .   S
    C360   O476      1.02879      .   S
    C20    O476      1.02879      .   S
    C361   O477      1.02879      .   S
    C21    O477      1.02879      .   S
    C410   O478      1.05083      .   S
    C38    O478      1.05083      .   S
    C411   O479      1.05083      .   S
    C39    O479      1.05083      .   S
    C362   O480      1.05318      .   S
    C38    O480      1.05318      .   S
    C363   O481      1.05318      .   S
    C39    O481      1.05318      .   S
    C430   O482      1.08065      .   S
    C18    O482      1.08065      .   S
    C431   O483      1.08065      .   S
    C19    O483      1.08065      .   S
    C383   O484      1.08095      .   S
    C27    O484      1.08095      .   S
    C382   O485      1.08095      .   S
    C26    O485      1.08095      .   S
    C100   O486      0.55156      .   S
    C198   O486      0.55156      .   S
    C101   O487      0.55158      .   S
    C199   O487      0.55158      .   S
    C125   O488      0.55158      .   S
    C223   O488      0.55158      .   S
    C124   O489      0.55161      .   S
    C222   O489      0.55161      .   S
    C233   O490      0.55298      .   S
    C139   O490      0.55298      .   S
    C233   O491      0.64335      .   S
    C417   O491      0.64335      .   S
    C232   O492      0.55298      .   S
    C138   O492      0.55298      .   S
    C232   O493      0.64335      .   S
    C416   O493      0.64335      .   S
    C209   O494      0.55302      .   S
    C115   O494      0.55302      .   S
    C209   O495      0.64360      .   S
    C369   O495      0.64360      .   S
    C208   O496      0.55302      .   S
    C114   O496      0.55302      .   S
    C208   O497      0.64360      .   S
    C368   O497      0.64360      .   S
    C350   O498      0.62943      .   S
    C198   O498      0.62943      .   S
    C350   O499      1.03070  1_455   S
    C19    O499      1.03070      .   S
    C351   O500      0.62944      .   S
    C199   O500      0.62944      .   S
    C351   O501      1.03059      .   S
    C18    O501      1.03059      .   S
    C399   O502      0.62917      .   S
    C223   O502      0.62917      .   S
    C399   O503      1.03048  1_655   S
    C26    O503      1.03048      .   S
    C398   O504      0.62918      .   S
    C222   O504      0.62918      .   S
    C398   O505      1.03037      .   S
    C27    O505      1.03037      .   S
    C199   O506      0.64214  1_565   S
    C349   O506      0.64214      .   S
    C198   O507      0.64215  1_565   S
    C348   O507      0.64215      .   S
    C223   O508      0.64214      .   S
    C397   O508      0.64214      .   S
    C222   O509      0.64212      .   S
    C396   O509      0.64212      .   S
    C98    O510      0.55368      .   S
    C194   O510      0.55368      .   S
    C99    O511      0.55372      .   S
    C195   O511      0.55372      .   S
    C123   O512      0.55363      .   S
    C219   O512      0.55363      .   S
    C122   O513      0.55364      .   S
    C218   O513      0.55364      .   S
    C28    O514      1.04661      .   S
    C424   O514      1.04661      .   S
    C28    O515      1.07382      .   S
    C412   O515      1.07382      .   S
    C28    O516      1.06833      .   S
    C420   O516      1.06833      .   S
    C29    O517      1.04661      .   S
    C425   O517      1.04661      .   S
    C29    O518      1.07382      .   S
    C413   O518      1.07382      .   S
    C29    O519      1.06833      .   S
    C421   O519      1.06833      .   S
    C21    O520      1.04433      .   S
    C377   O520      1.04433      .   S
    C21    O521      1.07498      .   S
    C365   O521      1.07498      .   S
    C21    O522      1.06859      .   S
    C373   O522      1.06859      .   S
    C20    O523      1.04433      .   S
    C376   O523      1.04433      .   S
    C20    O524      1.07499      .   S
    C364   O524      1.07499      .   S
    C20    O525      1.06859      .   S
    C372   O525      1.06859      .   S
    C416   O526      1.06042      .   S
    C30    O526      1.06042      .   S
    C417   O527      1.06042      .   S
    C31    O527      1.06042      .   S
    C369   O528      1.05940      .   S
    C23    O528      1.05940      .   S
    C368   O529      1.05940      .   S
    C22    O529      1.05940      .   S
    C377   O530      0.64440      .   S
    C213   O530      0.64440      .   S
    C376   O531      0.64440      .   S
    C212   O531      0.64440      .   S
    C425   O532      0.64442      .   S
    C237   O532      0.64442      .   S
    C424   O533      0.64442      .   S
    C236   O533      0.64442      .   S
    C38    O534      1.05089      .   S
    C414   O534      1.05089      .   S
    C38    O535      1.05699      .   S
    C366   O535      1.05699      .   S
    C39    O536      1.05089      .   S
    C415   O536      1.05089      .   S
    C39    O537      1.05698      .   S
    C367   O537      1.05698      .   S
    C116   O538      0.55104      .   S
    C212   O538      0.55104      .   S
    C117   O539      0.55105      .   S
    C213   O539      0.55105      .   S
    C140   O540      0.55103      .   S
    C236   O540      0.55103      .   S
    C141   O541      0.55102      .   S
    C237   O541      0.55102      .   S
    C212   O542      0.62744      .   S
    C380   O542      0.62744      .   S
    C213   O543      0.62737      .   S
    C381   O543      0.62737      .   S
    C236   O544      0.62747      .   S
    C428   O544      0.62747      .   S
    C237   O545      0.62740      .   S
    C429   O545      0.62740      .   S
    C381   O546      1.03198      .   S
    C27    O546      1.03198      .   S
    C380   O547      1.03194      .   S
    C26    O547      1.03194      .   S
    C429   O548      1.03221      .   S
    C19    O548      1.03221      .   S
    C428   O549      1.03216      .   S
    C18    O549      1.03216      .   S
    C194   O550      0.62559      .   S
    C342   O550      0.62559      .   S
    C194   O551      0.64261      .   S
    C340   O551      0.64261      .   S
    C195   O552      0.62558      .   S
    C343   O552      0.62558      .   S
    C195   O553      0.64216      .   S
    C341   O553      0.64216      .   S
    C219   O554      0.62566      .   S
    C391   O554      0.62566      .   S
    C219   O555      0.64256      .   S
    C389   O555      0.64256      .   S
    C218   O556      0.62565      .   S
    C390   O556      0.62565      .   S
    C218   O557      0.64255      .   S
    C388   O557      0.64255      .   S
    C27    O558      1.05960      .   S
    C393   O558      1.05960      .   S
    C26    O559      1.05961      .   S
    C392   O559      1.05961      .   S
    C18    O560      1.06003      .   S
    C344   O560      1.06003      .   S
    C19    O561      1.06002      .   S
    C345   O561      1.06002      .   S
    C342   O562      1.05060      .   S
    C37    O562      1.05060      .   S
    C343   O563      1.05067      .   S
    C36    O563      1.05067  1_455   S
    C390   O564      1.05046      .   S
    C36    O564      1.05046      .   S
    C391   O565      1.05048      .   S
    C37    O565      1.05048      .   S
    C349   O566      1.06933      .   S
    C17    O566      1.06933      .   S
    C348   O567      1.06933      .   S
    C16    O567      1.06933      .   S
    C396   O568      1.06815      .   S
    C24    O568      1.06815      .   S
    C397   O569      1.06813      .   S
    C25    O569      1.06813      .   S
    C341   O570      1.07667      .   S
    C16    O570      1.07667  1_455   S
    C340   O571      1.07599      .   S
    C17    O571      1.07599      .   S
    C389   O572      1.07610      .   S
    C24    O572      1.07610      .   S
    C388   O573      1.07619      .   S
    C25    O573      1.07619  1_655   S
    C412   O574      0.64258      .   S
    C230   O574      0.64258      .   S
    C413   O575      0.64259      .   S
    C231   O575      0.64259      .   S
    C364   O576      0.64292      .   S
    C206   O576      0.64292      .   S
    C365   O577      0.64294      .   S
    C207   O577      0.64294      .   S
    C421   O578      0.64217      .   S
    C235   O578      0.64217  1_545   S
    C420   O579      0.64217      .   S
    C234   O579      0.64217  1_545   S
    C372   O580      0.64217      .   S
    C210   O580      0.64217      .   S
    C373   O581      0.64217      .   S
    C211   O581      0.64217      .   S
    C414   O582      0.62533      .   S
    C230   O582      0.62533      .   S
    C415   O583      0.62533      .   S
    C231   O583      0.62533      .   S
    C366   O584      0.62540      .   S
    C206   O584      0.62540      .   S
    C367   O585      0.62540      .   S
    C207   O585      0.62540      .   S
    C231   O586      0.54964      .   S
    C135   O586      0.54964      .   S
    C230   O587      0.55365      .   S
    C134   O587      0.55365      .   S
    C206   O588      0.55375      .   S
    C110   O588      0.55375      .   S
    C207   O589      0.55371      .   S
    C111   O589      0.55371      .   S
    C23    O590      1.03117      .   S
    C405   O590      1.03117      .   S
    C23    O591      1.03040      .   S
    C375   O591      1.03040      .   S
    C23    O592      1.08172      .   S
    C407   O592      1.08172      .   S
    C22    O593      1.03117      .   S
    C404   O593      1.03117      .   S
    C22    O594      1.03040      .   S
    C374   O594      1.03040      .   S
    C22    O595      1.08172      .   S
    C406   O595      1.08172      .   S
    C30    O596      1.03073      .   S
    C356   O596      1.03073      .   S
    C30    O597      1.02999      .   S
    C422   O597      1.02999      .   S
    C30    O598      1.08137      .   S
    C358   O598      1.08137      .   S
    C31    O599      1.03073      .   S
    C357   O599      1.03073      .   S
    C31    O600      1.02999      .   S
    C423   O600      1.02999      .   S
    C31    O601      1.08137      .   S
    C359   O601      1.08137      .   S
    C356   O602      0.62749      .   S
    C200   O602      0.62749      .   S
    C357   O603      0.62747      .   S
    C201   O603      0.62747      .   S
    C405   O604      0.62716      .   S
    C225   O604      0.62716      .   S
    C404   O605      0.62741      .   S
    C224   O605      0.62741      .   S
    C225   O606      0.55114      .   S
    C129   O606      0.55114      .   S
    C225   O607      0.64459      .   S
    C401   O607      0.64459      .   S
    C201   O608      0.55100      .   S
    C105   O608      0.55100      .   S
    C201   O609      0.64437      .   S
    C353   O609      0.64437      .   S
    C200   O610      0.55097      .   S
    C104   O610      0.55097      .   S
    C200   O611      0.64437      .   S
    C352   O611      0.64437      .   S
    C224   O612      0.55102      .   S
    C128   O612      0.55102      .   S
    C224   O613      0.64443      .   S
    C400   O613      0.64443      .   S
    C37    O614      1.05767      .   S
    C338   O614      1.05767      .   S
    C37    O615      1.05762      .   S
    C387   O615      1.05762      .   S
    C36    O616      1.05772  1_455   S
    C339   O616      1.05772      .   S
    C36    O617      1.05763      .   S
    C386   O617      1.05763      .   S
    C353   O618      1.04527      .   S
    C17    O618      1.04527      .   S
    C352   O619      1.04527      .   S
    C16    O619      1.04527      .   S
    C400   O620      1.04556      .   S
    C24    O620      1.04556      .   S
    C401   O621      1.04556      .   S
    C25    O621      1.04556      .   S
    C393   O622      0.64350      .   S
    C221   O622      0.64350      .   S
    C392   O623      0.64349      .   S
    C220   O623      0.64349      .   S
    C345   O624      0.64350      .   S
    C197   O624      0.64350      .   S
    C344   O625      0.64349      .   S
    C196   O625      0.64349      .   S
    C25    O626      1.02780      .   S
    C384   O626      1.02780  1_455   S
    C24    O627      1.02773      .   S
    C385   O627      1.02773      .   S
    C16    O628      1.02806      .   S
    C337   O628      1.02806  1_655   S
    C17    O629      1.02799      .   S
    C336   O629      1.02799      .   S
    C235   O630      0.62915      .   S
    C423   O630      0.62915      .   S
    C235   O631      0.55161      .   S
    C137   O631      0.55161      .   S
    C234   O632      0.62915      .   S
    C422   O632      0.62915      .   S
    C234   O633      0.55161      .   S
    C136   O633      0.55161      .   S
    C211   O634      0.62914      .   S
    C375   O634      0.62914      .   S
    C211   O635      0.55157      .   S
    C113   O635      0.55157      .   S
    C210   O636      0.62914      .   S
    C374   O636      0.62914      .   S
    C210   O637      0.55158      .   S
    C112   O637      0.55158      .   S
    C103   O638      0.55297      .   S
    C197   O638      0.55297      .   S
    C102   O639      0.55296      .   S
    C196   O639      0.55296      .   S
    C126   O640      0.55301      .   S
    C220   O640      0.55301      .   S
    C127   O641      0.55301      .   S
    C221   O641      0.55301      .   S
    C221   O642      0.62537      .   S
    C395   O642      0.62537      .   S
    C220   O643      0.62537      .   S
    C394   O643      0.62537      .   S
    C197   O644      0.62538      .   S
    C347   O644      0.62538      .   S
    C196   O645      0.62539      .   S
    C346   O645      0.62539      .   S
    C358   O646      0.64417      .   S
    C202   O646      0.64417      .   S
    C359   O647      0.64417      .   S
    C203   O647      0.64417      .   S
    C406   O648      0.64398      .   S
    C226   O648      0.64398      .   S
    C407   O649      0.64398      .   S
    C227   O649      0.64398      .   S
    C338   O650      0.62438      .   S
    C192   O650      0.62438      .   S
    C339   O651      0.62438      .   S
    C193   O651      0.62438      .   S
    C387   O652      0.62439      .   S
    C217   O652      0.62439      .   S
    C386   O653      0.62435      .   S
    C216   O653      0.62435      .   S
    C337   O654      0.64705      .   S
    C193   O654      0.64705      .   S
    C385   O655      0.64709      .   S
    C217   O655      0.64709      .   S
    C384   O656      0.64708      .   S
    C216   O656      0.64708      .   S
    C336   O657      0.64705      .   S
    C192   O657      0.64705      .   S
    C394   O658      1.06437      .   S
    C44    O658      1.06437      .   S
    C395   O659      1.06437      .   S
    C45    O659      1.06437      .   S
    C347   O660      1.06357      .   S
    C40    O660      1.06357  1_545   S
    C346   O661      1.06357      .   S
    C41    O661      1.06357  1_545   S
    C192   O662      0.55141      .   S
    C96    O662      0.55141      .   S
    C193   O663      0.55140      .   S
    C97    O663      0.55140      .   S
    C216   O664      0.55145      .   S
    C120   O664      0.55145      .   S
    C217   O665      0.55136      .   S
    C121   O665      0.55136      .   S
    C202   O666      0.55289      .   S
    C106   O666      0.55289      .   S
    C202   O667      0.62687      .   S
    C354   O667      0.62687      .   S
    C203   O668      0.55290      .   S
    C107   O668      0.55290      .   S
    C203   O669      0.62687      .   S
    C355   O669      0.62687      .   S
    C226   O670      0.55288      .   S
    C130   O670      0.55288      .   S
    C226   O671      0.62191      .   S
    C402   O671      0.62191      .   S
    C227   O672      0.55288      .   S
    C131   O672      0.55288      .   S
    C227   O673      0.62702      .   S
    C403   O673      0.62702      .   S
    C402   O674      1.04632      .   S
    C45    O674      1.04632      .   S
    C354   O675      1.04653      .   S
    C40    O675      1.04653  1_655   S
    C355   O676      1.04651      .   S
    C41    O676      1.04651      .   S
    C403   O677      1.04609      .   S
    C44    O677      1.04609  1_455   S
    C40    O678      1.04664  1_545   S
    C259   O678      1.04664      .   S
    C40    O679      1.06349  1_655   S
    C250   O679      1.06349      .   S
    C41    O680      1.04651  1_545   S
    C258   O680      1.04651      .   S
    C41    O681      1.06349      .   S
    C251   O681      1.06349      .   S
    C45    O682      1.04596      .   S
    C307   O682      1.04596      .   S
    C45    O683      1.06437      .   S
    C298   O683      1.06437      .   S
    C44    O684      1.04596      .   S
    C306   O684      1.04596      .   S
    C44    O685      1.06437  1_455   S
    C299   O685      1.06437      .   S
    C307   O686      0.62694      .   S
    C179   O686      0.62694      .   S
    C306   O687      0.62694      .   S
    C178   O687      0.62694      .   S
    C258   O688      0.62688      .   S
    C154   O688      0.62688      .   S
    C259   O689      0.62689      .   S
    C155   O689      0.62689      .   S
    C72    O690      0.55144      .   S
    C168   O690      0.55144      .   S
    C73    O691      0.55144      .   S
    C169   O691      0.55144      .   S
    C49    O692      0.55142      .   S
    C145   O692      0.55142      .   S
    C48    O693      0.55135      .   S
    C144   O693      0.55135      .   S
    C58    O694      0.55297      .   S
    C154   O694      0.55297      .   S
    C59    O695      0.55297      .   S
    C155   O695      0.55297      .   S
    C83    O696      0.55289      .   S
    C179   O696      0.55289      .   S
    C82    O697      0.55288      .   S
    C178   O697      0.55288      .   S
    C178   O698      0.64363      .   S
    C310   O698      0.64363      .   S
    C179   O699      0.64362      .   S
    C311   O699      0.64362      .   S
    C154   O700      0.64417      .   S
    C262   O700      0.64417      .   S
    C155   O701      0.64417      .   S
    C263   O701      0.64417      .   S
    C169   O702      0.64708      .   S
    C289   O702      0.64708      .   S
    C169   O703      0.62435      .   S
    C291   O703      0.62435      .   S
    C168   O704      0.64708      .   S
    C288   O704      0.64708      .   S
    C168   O705      0.62435      .   S
    C290   O705      0.62435      .   S
    C145   O706      0.64707      .   S
    C241   O706      0.64707      .   S
    C145   O707      0.62437      .   S
    C243   O707      0.62437      .   S
    C144   O708      0.64707      .   S
    C240   O708      0.64707      .   S
    C144   O709      0.62433      .   S
    C242   O709      0.62433      .   S
    C251   O710      0.62538      .   S
    C149   O710      0.62538      .   S
    C250   O711      0.62538      .   S
    C148   O711      0.62538      .   S
    C298   O712      0.62537      .   S
    C172   O712      0.62537      .   S
    C299   O713      0.62537      .   S
    C173   O713      0.62537      .   S
    C288   O714      1.02726      .   S
    C9     O714      1.02726      .   S
    C289   O715      1.02733  1_655   S
    C8     O715      1.02733      .   S
    C241   O716      1.02791      .   S
    C0     O716      1.02791      .   S
    C240   O717      1.02798  1_455   S
    C1     O717      1.02798      .   S
    C242   O718      1.05788      .   S
    C32    O718      1.05788  1_655   S
    C291   O719      1.05767      .   S
    C32    O719      1.05767      .   S
    C290   O720      1.05768      .   S
    C33    O720      1.05768      .   S
    C243   O721      1.05773      .   S
    C33    O721      1.05773      .   S
    C311   O722      1.08200      .   S
    C7     O722      1.08200      .   S
    C310   O723      1.08201      .   S
    C6     O723      1.08201      .   S
    C262   O724      1.08135      .   S
    C14    O724      1.08135      .   S
    C263   O725      1.08135      .   S
    C15    O725      1.08135      .   S
    C65    O726      0.55159      .   S
    C163   O726      0.55159      .   S
    C64    O727      0.55159      .   S
    C162   O727      0.55159      .   S
    C88    O728      0.55155      .   S
    C186   O728      0.55155      .   S
    C89    O729      0.55154      .   S
    C187   O729      0.55154      .   S
    C148   O730      0.55293      .   S
    C54    O730      0.55293      .   S
    C148   O731      0.64319      .   S
    C248   O731      0.64319      .   S
    C149   O732      0.55292      .   S
    C55    O732      0.55292      .   S
    C149   O733      0.64319      .   S
    C249   O733      0.64319      .   S
    C173   O734      0.55302      .   S
    C79    O734      0.55302      .   S
    C173   O735      0.64349      .   S
    C297   O735      0.64349      .   S
    C172   O736      0.55301      .   S
    C78    O736      0.55301      .   S
    C172   O737      0.64331      .   S
    C296   O737      0.64331      .   S
    C279   O738      0.63125      .   S
    C163   O738      0.63125      .   S
    C279   O739      1.03455      .   S
    C7     O739      1.03455      .   S
    C278   O740      0.63125      .   S
    C162   O740      0.63125      .   S
    C278   O741      1.03454      .   S
    C6     O741      1.03454      .   S
    C326   O742      0.62913      .   S
    C186   O742      0.62913      .   S
    C326   O743      1.02999      .   S
    C14    O743      1.02999      .   S
    C327   O744      0.62914      .   S
    C187   O744      0.62914      .   S
    C327   O745      1.02999      .   S
    C15    O745      1.02999      .   S
    C163   O746      0.64217      .   S
    C277   O746      0.64217      .   S
    C162   O747      0.64217      .   S
    C276   O747      0.64217      .   S
    C63    O748      0.55368      .   S
    C159   O748      0.55368      .   S
    C62    O749      0.55368      .   S
    C158   O749      0.55368      .   S
    C186   O750      0.64225  1_565   S
    C324   O750      0.64225      .   S
    C187   O751      0.64225  1_565   S
    C325   O751      0.64225      .   S
    C86    O752      0.55362      .   S
    C182   O752      0.55362      .   S
    C87    O753      0.55362      .   S
    C183   O753      0.55362      .   S
    C8     O754      1.04561      .   S
    C304   O754      1.04561      .   S
    C8     O755      1.07656  1_455   S
    C293   O755      1.07656      .   S
    C8     O756      1.06858      .   S
    C300   O756      1.06858      .   S
    C9     O757      1.04561      .   S
    C305   O757      1.04561      .   S
    C9     O758      1.07650      .   S
    C292   O758      1.07650      .   S
    C9     O759      1.06842      .   S
    C301   O759      1.06842      .   S
    C1     O760      1.04527      .   S
    C257   O760      1.04527      .   S
    C1     O761      1.07615  1_655   S
    C244   O761      1.07615      .   S
    C1     O762      1.06941      .   S
    C253   O762      1.06941      .   S
    C0     O763      1.04527      .   S
    C256   O763      1.04527      .   S
    C0     O764      1.07603      .   S
    C245   O764      1.07603      .   S
    C0     O765      1.06940      .   S
    C252   O765      1.06940      .   S
    C248   O766      1.06044      .   S
    C2     O766      1.06044      .   S
    C249   O767      1.06044      .   S
    C3     O767      1.06044      .   S
    C296   O768      1.05993      .   S
    C10    O768      1.05993      .   S
    C297   O769      1.05968      .   S
    C11    O769      1.05968      .   S
    C305   O770      0.64442      .   S
    C177   O770      0.64442      .   S
    C304   O771      0.64443      .   S
    C176   O771      0.64443      .   S
    C257   O772      0.64368      .   S
    C153   O772      0.64368      .   S
    C256   O773      0.64438      .   S
    C152   O773      0.64438      .   S
    C81    O774      0.55106      .   S
    C177   O774      0.55106      .   S
    C80    O775      0.55101      .   S
    C176   O775      0.55101      .   S
    C57    O776      0.55054      .   S
    C153   O776      0.55054      .   S
    C56    O777      0.55100      .   S
    C152   O777      0.55100      .   S
    C33    O778      1.05053      .   S
    C247   O778      1.05053      .   S
    C33    O779      1.05046      .   S
    C294   O779      1.05046      .   S
    C32    O780      1.05041      .   S
    C295   O780      1.05041      .   S
    C32    O781      1.05061  1_655   S
    C246   O781      1.05061      .   S
    C153   O782      0.62873      .   S
    C261   O782      0.62873      .   S
    C177   O783      0.62741      .   S
    C309   O783      0.62741      .   S
    C176   O784      0.62741      .   S
    C308   O784      0.62741      .   S
    C152   O785      0.62747      .   S
    C260   O785      0.62747      .   S
    C309   O786      1.03118      .   S
    C7     O786      1.03118      .   S
    C308   O787      1.03118      .   S
    C6     O787      1.03118      .   S
    C260   O788      1.03074      .   S
    C14    O788      1.03074      .   S
    C261   O789      1.03073      .   S
    C15    O789      1.03073      .   S
    C15    O790      1.05991      .   S
    C321   O790      1.05991      .   S
    C14    O791      1.05991      .   S
    C320   O791      1.05991      .   S
    C7     O792      1.05941      .   S
    C273   O792      1.05941      .   S
    C6     O793      1.05941      .   S
    C272   O793      1.05941      .   S
    C159   O794      0.62540      .   S
    C271   O794      0.62540      .   S
    C159   O795      0.64298      .   S
    C269   O795      0.64298      .   S
    C158   O796      0.62541      .   S
    C270   O796      0.62541      .   S
    C158   O797      0.64297      .   S
    C268   O797      0.64297      .   S
    C183   O798      0.62531      .   S
    C319   O798      0.62531      .   S
    C183   O799      0.64260      .   S
    C317   O799      0.64260      .   S
    C182   O800      0.62531      .   S
    C318   O800      0.62531      .   S
    C182   O801      0.64260      .   S
    C316   O801      0.64260      .   S
    C271   O802      1.05699      .   S
    C35    O802      1.05699      .   S
    C270   O803      1.05693      .   S
    C34    O803      1.05693      .   S
    C319   O804      1.05089      .   S
    C35    O804      1.05089      .   S
    C318   O805      1.05089      .   S
    C34    O805      1.05089      .   S
    C276   O806      1.06859      .   S
    C4     O806      1.06859      .   S
    C277   O807      1.06859      .   S
    C5     O807      1.06859      .   S
    C324   O808      1.06790      .   S
    C12    O808      1.06790      .   S
    C325   O809      1.06790      .   S
    C13    O809      1.06790      .   S
    C269   O810      1.07493      .   S
    C5     O810      1.07493      .   S
    C268   O811      1.07493      .   S
    C4     O811      1.07493      .   S
    C317   O812      1.07345      .   S
    C13    O812      1.07345      .   S
    C316   O813      1.07345      .   S
    C12    O813      1.07345      .   S
    C293   O814      0.64255      .   S
    C171   O814      0.64255      .   S
    C292   O815      0.64254      .   S
    C170   O815      0.64254      .   S
    C245   O816      0.64258      .   S
    C147   O816      0.64258      .   S
    C244   O817      0.64256      .   S
    C146   O817      0.64256      .   S
    C301   O818      0.64237      .   S
    C175   O818      0.64237      .   S
    C300   O819      0.64219      .   S
    C174   O819      0.64219      .   S
    C252   O820      0.64207      .   S
    C150   O820      0.64207  1_545   S
    C253   O821      0.64207      .   S
    C151   O821      0.64207  1_545   S
    C295   O822      0.62566      .   S
    C171   O822      0.62566      .   S
    C246   O823      0.62559      .   S
    C146   O823      0.62559      .   S
    C247   O824      0.62560      .   S
    C147   O824      0.62560      .   S
    C294   O825      0.62565      .   S
    C170   O825      0.62565      .   S
    C3     O826      1.03217      .   S
    C333   O826      1.03217      .   S
    C3     O827      1.03027      .   S
    C254   O827      1.03027      .   S
    C3     O828      1.08070      .   S
    C335   O828      1.08070      .   S
    C2     O829      1.03217      .   S
    C332   O829      1.03217      .   S
    C2     O830      1.03040      .   S
    C255   O830      1.03040  1_655   S
    C2     O831      1.08071      .   S
    C334   O831      1.08071      .   S
    C10    O832      1.03192      .   S
    C284   O832      1.03192      .   S
    C10    O833      1.03027      .   S
    C303   O833      1.03027      .   S
    C10    O834      1.08088      .   S
    C286   O834      1.08088      .   S
    C11    O835      1.03192      .   S
    C285   O835      1.03192      .   S
    C11    O836      1.03043      .   S
    C302   O836      1.03043  1_455   S
    C11    O837      1.08088      .   S
    C287   O837      1.08088      .   S
    C171   O838      0.55364      .   S
    C75    O838      0.55364      .   S
    C170   O839      0.55364      .   S
    C74    O839      0.55364      .   S
    C147   O840      0.55369      .   S
    C51    O840      0.55369      .   S
    C146   O841      0.55365      .   S
    C50    O841      0.55365      .   S
    C332   O842      0.62749      .   S
    C188   O842      0.62749      .   S
    C333   O843      0.62748      .   S
    C189   O843      0.62748      .   S
    C285   O844      0.62743      .   S
    C165   O844      0.62743      .   S
    C284   O845      0.62743      .   S
    C164   O845      0.62743      .   S
    C189   O846      0.55102      .   S
    C93    O846      0.55102      .   S
    C189   O847      0.64442      .   S
    C329   O847      0.64442      .   S
    C188   O848      0.55102      .   S
    C92    O848      0.55102      .   S
    C188   O849      0.64442      .   S
    C328   O849      0.64442      .   S
    C164   O850      0.55105      .   S
    C68    O850      0.55105      .   S
    C164   O851      0.64436      .   S
    C280   O851      0.64436      .   S
    C165   O852      0.55105      .   S
    C69    O852      0.55105      .   S
    C165   O853      0.64436      .   S
    C281   O853      0.64436      .   S
    C34    O854      1.05320      .   S
    C266   O854      1.05320      .   S
    C34    O855      1.05088      .   S
    C314   O855      1.05088      .   S
    C35    O856      1.05320      .   S
    C267   O856      1.05320      .   S
    C35    O857      1.05087      .   S
    C315   O857      1.05087      .   S
    C329   O858      1.04657      .   S
    C13    O858      1.04657      .   S
    C328   O859      1.04657      .   S
    C12    O859      1.04657      .   S
    C281   O860      1.04435      .   S
    C5     O860      1.04435      .   S
    C280   O861      1.04435      .   S
    C4     O861      1.04435      .   S
    C273   O862      0.64359      .   S
    C161   O862      0.64359      .   S
    C272   O863      0.64359      .   S
    C160   O863      0.64359      .   S
    C320   O864      0.64367      .   S
    C184   O864      0.64367      .   S
    C321   O865      0.64367      .   S
    C185   O865      0.64367      .   S
    C5     O866      1.02872      .   S
    C265   O866      1.02872      .   S
    C4     O867      1.02872      .   S
    C264   O867      1.02872      .   S
    C12    O868      1.02975      .   S
    C312   O868      1.02975      .   S
    C13    O869      1.02975      .   S
    C313   O869      1.02975      .   S
    C174   O870      0.62916      .   S
    C302   O870      0.62916      .   S
    C174   O871      0.55153      .   S
    C76    O871      0.55153      .   S
    C175   O872      0.62912      .   S
    C303   O872      0.62912      .   S
    C175   O873      0.55115      .   S
    C77    O873      0.55115      .   S
    C151   O874      0.62927      .   S
    C255   O874      0.62927      .   S
    C151   O875      0.55158      .   S
    C53    O875      0.55158      .   S
    C150   O876      0.62927      .   S
    C254   O876      0.62927      .   S
    C150   O877      0.55156      .   S
    C52    O877      0.55156      .   S
    C90    O878      0.55293      .   S
    C184   O878      0.55293      .   S
    C91    O879      0.55293      .   S
    C185   O879      0.55293      .   S
    C67    O880      0.55303      .   S
    C161   O880      0.55303      .   S
    C66    O881      0.55303      .   S
    C160   O881      0.55303      .   S
    C161   O882      0.62534      .   S
    C275   O882      0.62534      .   S
    C185   O883      0.62552      .   S
    C323   O883      0.62552      .   S
    C184   O884      0.62552      .   S
    C322   O884      0.62552      .   S
    C160   O885      0.62534      .   S
    C274   O885      0.62534      .   S
    C286   O886      0.64409      .   S
    C166   O886      0.64409      .   S
    C287   O887      0.64410      .   S
    C167   O887      0.64410      .   S
    C335   O888      0.64413      .   S
    C191   O888      0.64413      .   S
    C334   O889      0.64413      .   S
    C190   O889      0.64413      .   S
    C266   O890      0.62420      .   S
    C156   O890      0.62420      .   S
    C267   O891      0.62420      .   S
    C157   O891      0.62420      .   S
    C315   O892      0.62431      .   S
    C181   O892      0.62431      .   S
    C314   O893      0.62432      .   S
    C180   O893      0.62432      .   S
    C264   O894      0.64697      .   S
    C156   O894      0.64697      .   S
    C265   O895      0.64697      .   S
    C157   O895      0.64697      .   S
    C312   O896      0.64689      .   S
    C180   O896      0.64689      .   S
    C313   O897      0.64690      .   S
    C181   O897      0.64690      .   S
    C274   O898      1.06539      .   S
    C42    O898      1.06539      .   S
    C157   O899      0.55132      .   S
    C61    O899      0.55132      .   S
    C156   O900      0.55131      .   S
    C60    O900      0.55131      .   S
    C181   O901      0.55127      .   S
    C85    O901      0.55127      .   S
    C180   O902      0.55074      .   S
    C84    O902      0.55074      .   S
    C167   O903      0.55290      .   S
    C71    O903      0.55290      .   S
    C167   O904      0.62693      .   S
    C283   O904      0.62693      .   S
    C166   O905      0.55291      .   S
    C70    O905      0.55291      .   S
    C166   O906      0.62693      .   S
    C282   O906      0.62693      .   S
    C190   O907      0.55288      .   S
    C94    O907      0.55288      .   S
    C190   O908      0.62689      .   S
    C330   O908      0.62689      .   S
    C191   O909      0.55288      .   S
    C95    O909      0.55288      .   S
    C191   O910      0.62689      .   S
    C331   O910      0.62689      .   S
    C282   O911      1.04744      .   S
    C42    O911      1.04744      .   S
    C240   O912      1.10434      .   S
    C40    O912      1.10434  1_645   S
    C241   O913      1.10434      .   S
    C41    O913      1.10434  1_545   S
    C244   O914      1.09146      .   S
    C2     O914      1.09146  1_545   S
    C245   O915      1.09148      .   S
    C3     O915      1.09148  1_545   S
    C248   O916      1.06815  1_445   S
    C1     O916      1.06815      .   S
    C249   O917      1.06808  1_545   S
    C0     O917      1.06808      .   S
    C252   O918      1.09008      .   S
    C14    O918      1.09008      .   S
    C253   O919      1.09007      .   S
    C15    O919      1.09007      .   S
    C256   O920      1.08806      .   S
    C33    O920      1.08806      .   S
    C257   O921      1.08807      .   S
    C32    O921      1.08807      .   S
    C262   O922      1.08743      .   S
    C0     O922      1.08743      .   S
    C263   O923      1.08743      .   S
    C1     O923      1.08743      .   S
    C264   O924      1.09617      .   S
    C42    O924      1.09617      .   S
    C265   O925      1.09623      .   S
    C43    O925      1.09623  1_554   S
    C268   O926      1.09097      .   S
    C6     O926      1.09097      .   S
    C269   O927      1.09098      .   S
    C7     O927      1.09098      .   S
    C272   O928      1.06953      .   S
    C4     O928      1.06953      .   S
    C273   O929      1.06953      .   S
    C5     O929      1.06953      .   S
    C276   O930      1.08932      .   S
    C10    O930      1.08932      .   S
    C277   O931      1.08932      .   S
    C11    O931      1.08932      .   S
    C280   O932      1.08954      .   S
    C34    O932      1.08954      .   S
    C281   O933      1.08954      .   S
    C35    O933      1.08954      .   S
    C286   O934      1.08802      .   S
    C4     O934      1.08802      .   S
    C287   O935      1.08802      .   S
    C5     O935      1.08802      .   S
    C288   O936      1.10416      .   S
    C45    O936      1.10416      .   S
    C289   O937      1.10418      .   S
    C44    O937      1.10418  1_455   S
    C292   O938      1.09155      .   S
    C10    O938      1.09155      .   S
    C293   O939      1.09157      .   S
    C11    O939      1.09157      .   S
    C296   O940      1.06939      .   S
    C9     O940      1.06939      .   S
    C297   O941      1.06946  1_655   S
    C8     O941      1.06946      .   S
    C300   O942      1.08989      .   S
    C6     O942      1.08989      .   S
    C301   O943      1.08980      .   S
    C7     O943      1.08980      .   S
    C304   O944      1.08760      .   S
    C32    O944      1.08760  1_655   S
    C305   O945      1.08751      .   S
    C33    O945      1.08751      .   S
    C310   O946      1.08745      .   S
    C8     O946      1.08745      .   S
    C311   O947      1.08745      .   S
    C9     O947      1.08745      .   S
    C312   O948      1.10105      .   S
    C46    O948      1.10105  1_554   S
    C313   O949      1.10105      .   S
    C47    O949      1.10105  1_554   S
    C316   O950      1.09078      .   S
    C14    O950      1.09078  1_565   S
    C317   O951      1.09078      .   S
    C15    O951      1.09078  1_565   S
    C320   O952      1.06953  1_565   S
    C12    O952      1.06953      .   S
    C321   O953      1.06953  1_565   S
    C13    O953      1.06953      .   S
    C324   O954      1.08928      .   S
    C2     O954      1.08928      .   S
    C325   O955      1.08928      .   S
    C3     O955      1.08928      .   S
    C328   O956      1.08899      .   S
    C34    O956      1.08899      .   S
    C329   O957      1.08899      .   S
    C35    O957      1.08899      .   S
    C334   O958      1.08815      .   S
    C12    O958      1.08815      .   S
    C335   O959      1.08815      .   S
    C13    O959      1.08815      .   S
    C336   O960      1.10421      .   S
    C41    O960      1.10421      .   S
    C337   O961      1.10423      .   S
    C40    O961      1.10423      .   S
    C340   O962      1.09150      .   S
    C18    O962      1.09150  1_565   S
    C341   O963      1.09125      .   S
    C19    O963      1.09125  1_565   S
    C344   O964      1.06810  1_565   S
    C17    O964      1.06810      .   S
    C345   O965      1.06817  1_665   S
    C16    O965      1.06817      .   S
    C348   O966      1.09003      .   S
    C30    O966      1.09003      .   S
    C349   O967      1.09003      .   S
    C31    O967      1.09003      .   S
    C352   O968      1.08806      .   S
    C36    O968      1.08806      .   S
    C353   O969      1.08806      .   S
    C37    O969      1.08806      .   S
    C358   O970      1.08741      .   S
    C16    O970      1.08741      .   S
    C359   O971      1.08741      .   S
    C17    O971      1.08741      .   S
    C360   O972      1.09612      .   S
    C42    O972      1.09612  1_556   S
    C361   O973      1.09606      .   S
    C43    O973      1.09606      .   S
    C364   O974      1.09096      .   S
    C22    O974      1.09096      .   S
    C365   O975      1.09095      .   S
    C23    O975      1.09095      .   S
    C368   O976      1.06951      .   S
    C20    O976      1.06951      .   S
    C369   O977      1.06951      .   S
    C21    O977      1.06951      .   S
    C372   O978      1.08928      .   S
    C26    O978      1.08928      .   S
    C373   O979      1.08928      .   S
    C27    O979      1.08928      .   S
    C376   O980      1.08953      .   S
    C38    O980      1.08953      .   S
    C377   O981      1.08954      .   S
    C39    O981      1.08954      .   S
    C382   O982      1.08802      .   S
    C20    O982      1.08802      .   S
    C383   O983      1.08801      .   S
    C21    O983      1.08801      .   S
    C384   O984      1.10415      .   S
    C44    O984      1.10415      .   S
    C385   O985      1.10416      .   S
    C45    O985      1.10416      .   S
    C388   O986      1.09155      .   S
    C26    O986      1.09155      .   S
    C389   O987      1.09154      .   S
    C27    O987      1.09154      .   S
    C392   O988      1.06944  1_455   S
    C25    O988      1.06944      .   S
    C393   O989      1.06937      .   S
    C24    O989      1.06937      .   S
    C396   O990      1.08989      .   S
    C22    O990      1.08989      .   S
    C397   O991      1.08990      .   S
    C23    O991      1.08990      .   S
    C400   O992      1.08752      .   S
    C37    O992      1.08752      .   S
    C401   O993      1.08761      .   S
    C36    O993      1.08761  1_455   S
    C406   O994      1.08754      .   S
    C24    O994      1.08754      .   S
    C407   O995      1.08754      .   S
    C25    O995      1.08754      .   S
    C408   O996      1.10102      .   S
    C46    O996      1.10102  1_545   S
    C409   O997      1.10102      .   S
    C47    O997      1.10102  1_545   S
    C412   O998      1.09076      .   S
    C30    O998      1.09076  1_545   S
    C413   O999      1.09076      .   S
    C31    O999      1.09076  1_545   S
    C416   O1000     1.06953  1_545   S
    C28    O1000     1.06953      .   S
    C417   O1001     1.06953  1_545   S
    C29    O1001     1.06953      .   S
    C420   O1002     1.08932      .   S
    C18    O1002     1.08932      .   S
    C421   O1003     1.08932      .   S
    C19    O1003     1.08932      .   S
    C424   O1004     1.08900      .   S
    C38    O1004     1.08900      .   S
    C425   O1005     1.08900      .   S
    C39    O1005     1.08900      .   S
    C430   O1006     1.08789      .   S
    C28    O1006     1.08789      .   S
    C431   O1007     1.08789      .   S
    C29    O1007     1.08789      .   S
