# CIF file generated by openbabel 2.4.90, see http://openbabel.sf.net
data_I
_chemical_name_common ''
_cell_length_a 18.407
_cell_length_b 18.416
_cell_length_c 18.411
_cell_angle_alpha 60.328
_cell_angle_beta 60.251
_cell_angle_gamma 60.283
_space_group_name_H-M_alt 'P 1'
_space_group_name_Hall 'P 1'
loop_
    _symmetry_equiv_pos_as_xyz
    x,y,z
loop_
    _atom_site_label
    _atom_site_type_symbol
    _atom_site_fract_x
    _atom_site_fract_y
    _atom_site_fract_z
    _atom_site_occupancy
    C0      C    0.11130   0.38893   0.38901   1.000
    C1      C    0.38863   0.11097   0.11092   1.000
    C2      C    0.11086   0.38860   0.11089   1.000
    C3      C    0.38913   0.11125   0.38903   1.000
    C4      C    0.11086   0.11095   0.38861   1.000
    C5      C    0.38913   0.38895   0.11126   1.000
    C6      C    0.61089   0.88874   0.61096   1.000
    C7      C    0.88916   0.61140   0.88910   1.000
    C8      C    0.61138   0.88902   0.88907   1.000
    C9      C    0.88872   0.61106   0.61098   1.000
    C10     C    0.88916   0.88904   0.61138   1.000
    C11     C    0.61090   0.61105   0.88873   1.000
