# CIF file generated by openbabel 2.4.90, see http://openbabel.sf.net
data_I
_chemical_name_common ''
_cell_length_a 7.816
_cell_length_b 10.681
_cell_length_c 17.955
_cell_angle_alpha 89.939
_cell_angle_beta 89.762
_cell_angle_gamma 89.996
_space_group_name_H-M_alt 'P 1'
_space_group_name_Hall 'P 1'
loop_
    _symmetry_equiv_pos_as_xyz
    x,y,z
loop_
    _atom_site_label
    _atom_site_type_symbol
    _atom_site_fract_x
    _atom_site_fract_y
    _atom_site_fract_z
    _atom_site_occupancy
    Lv0     Lv   0.71533   0.08410   0.17545   1.000
    Lv1     Lv   0.46548   0.18260   0.20140   1.000
    Lv2     Lv   0.96923   0.31615   0.70139   1.000
    Lv3     Lv   0.21902   0.41475   0.67519   1.000
    Lv4     Lv   0.78091   0.58366   0.32472   1.000
    Lv5     Lv   0.03066   0.68304   0.29886   1.000
    Lv6     Lv   0.28433   0.91529   0.82459   1.000
    Lv7     Lv   0.53388   0.81613   0.79847   1.000
