# CIF file generated by openbabel 2.4.90, see http://openbabel.sf.net
data_I
_chemical_name_common ''
_cell_length_a 7.816
_cell_length_b 10.681
_cell_length_c 17.955
_cell_angle_alpha 89.939
_cell_angle_beta 89.762
_cell_angle_gamma 89.996
_space_group_name_H-M_alt 'P 1'
_space_group_name_Hall 'P 1'
loop_
    _symmetry_equiv_pos_as_xyz
    x,y,z
loop_
    _atom_site_label
    _atom_site_type_symbol
    _atom_site_fract_x
    _atom_site_fract_y
    _atom_site_fract_z
    _atom_site_occupancy
    Mc0     Mc   0.73428   0.08621   0.28529   1.000
    Mc1     Mc   0.33712   0.13279   0.10857   1.000
    Mc2     Mc   0.57105   0.93853   0.20068   1.000
    Mc3     Mc   0.33505   0.10112   0.27157   1.000
    Mc4     Mc   0.23810   0.41223   0.78500   1.000
    Mc5     Mc   0.07448   0.56127   0.70016   1.000
    Mc6     Mc   0.83998   0.39824   0.77162   1.000
    Mc7     Mc   0.83956   0.36579   0.60862   1.000
    Mc8     Mc   0.76192   0.58672   0.21491   1.000
    Mc9     Mc   0.15986   0.63276   0.39157   1.000
    Mc10    Mc   0.16110   0.60200   0.22859   1.000
    Mc11    Mc   0.92568   0.43756   0.29964   1.000
    Mc12    Mc   0.66249   0.86623   0.89141   1.000
    Mc13    Mc   0.66371   0.89838   0.72842   1.000
    Mc14    Mc   0.42907   0.06252   0.79957   1.000
    Mc15    Mc   0.26507   0.91246   0.71475   1.000
