# CIF file generated by openbabel 2.4.90, see http://openbabel.sf.net
data_I
_chemical_name_common ''
_cell_length_a 7.816
_cell_length_b 10.681
_cell_length_c 17.955
_cell_angle_alpha 89.939
_cell_angle_beta 89.762
_cell_angle_gamma 89.996
_space_group_name_H-M_alt 'P 1'
_space_group_name_Hall 'P 1'
loop_
    _symmetry_equiv_pos_as_xyz
    x,y,z
loop_
    _atom_site_label
    _atom_site_type_symbol
    _atom_site_fract_x
    _atom_site_fract_y
    _atom_site_fract_z
    _atom_site_occupancy
    H0      H    0.90161   0.38338   0.81298   1.000
    H1      H    0.77987   0.44981   0.74186   1.000
    H2      H    0.00954   0.30010   0.58264   1.000
    H3      H    0.82303   0.22567   0.61454   1.000
    H4      H    0.66276   0.42056   0.62094   1.000
    H5      H    0.84899   0.51297   0.61611   1.000
    H6      H    0.60226   0.88385   0.68699   1.000
    H7      H    0.72377   0.94970   0.75828   1.000
    H8      H    0.49306   0.79862   0.91709   1.000
    H9      H    0.68102   0.72613   0.88530   1.000
    H10     H    0.83830   0.92217   0.87992   1.000
    H11     H    0.65258   0.01456   0.88355   1.000
    H12     H    0.09934   0.61656   0.18724   1.000
    H13     H    0.22183   0.55075   0.25831   1.000
    H14     H    0.99007   0.69862   0.41764   1.000
    H15     H    0.17687   0.77293   0.38592   1.000
    H16     H    0.33644   0.57764   0.37908   1.000
    H17     H    0.14988   0.48564   0.38389   1.000
    H18     H    0.39673   0.11545   0.31296   1.000
    H19     H    0.27439   0.05003   0.24178   1.000
    H20     H    0.50632   0.19916   0.08271   1.000
    H21     H    0.31895   0.27259   0.11439   1.000
    H22     H    0.16039   0.07688   0.12047   1.000
    H23     H    0.34927   0.98687   0.11644   1.000
    C24     C    0.83848   0.36153   0.76003   1.000
    C25     C    0.89999   0.31090   0.62051   1.000
    C26     C    0.79306   0.42454   0.59698   1.000
    C27     C    0.66508   0.86160   0.73998   1.000
    C28     C    0.60265   0.81072   0.87939   1.000
    C29     C    0.70732   0.92520   0.90321   1.000
    C30     C    0.16214   0.63869   0.24021   1.000
    C31     C    0.09966   0.68785   0.37978   1.000
    C32     C    0.20621   0.57387   0.40313   1.000
    C33     C    0.33403   0.13787   0.25997   1.000
    C34     C    0.39669   0.18772   0.12047   1.000
    C35     C    0.29108   0.07352   0.09692   1.000
    O36     O    0.23810   0.41223   0.78500   1.000
    O37     O    0.07448   0.56127   0.70016   1.000
    O38     O    0.26507   0.91246   0.71475   1.000
    O39     O    0.42907   0.06252   0.79957   1.000
    O40     O    0.76192   0.58672   0.21491   1.000
    O41     O    0.92568   0.43756   0.29964   1.000
    O42     O    0.73428   0.08621   0.28529   1.000
    O43     O    0.57105   0.93853   0.20068   1.000
loop_
    _geom_bond_atom_site_label_1
    _geom_bond_atom_site_label_2
    _geom_bond_distance
    _geom_bond_site_symmetry_2
    _ccdc_geom_bond_type
    H20    C34       1.09722      .   S
    C35    H23       1.08939  1_545   S
    C35    C34       1.53368      .   S
    C35    H22       1.10462      .   S
    H21    C34       1.09686      .   S
    H12    C30       1.09818      .   S
    C30    H13       1.09825      .   S
    H19    C33       1.09827      .   S
    C33    H18       1.09816      .   S
    H16    C32       1.10472      .   S
    C31    H15       1.09686      .   S
    C31    C32       1.53397      .   S
    C31    H14       1.09737  1_455   S
    H17    C32       1.09686      .   S
    H2     C25       1.09735  1_455   S
    C26    H5        1.09688      .   S
    C26    C25       1.53355      .   S
    C26    H4        1.10475      .   S
    H3     C25       1.09668      .   S
    H6     C27       1.09823      .   S
    C27    H7        1.09812      .   S
    H1     C24       1.09816      .   S
    C24    H0        1.09818      .   S
    C28    H9        1.09681      .   S
    C28    C29       1.53343      .   S
    C28    H8        1.09717      .   S
    H10    C29       1.10469      .   S
    H11    C29       1.10419  1_545   S
