# CIF file generated by openbabel 2.4.90, see http://openbabel.sf.net
data_I
_chemical_name_common ''
_cell_length_a 7.816
_cell_length_b 10.681
_cell_length_c 17.955
_cell_angle_alpha 89.939
_cell_angle_beta 89.762
_cell_angle_gamma 89.996
_space_group_name_H-M_alt 'P 1'
_space_group_name_Hall 'P 1'
loop_
    _symmetry_equiv_pos_as_xyz
    x,y,z
loop_
    _atom_site_label
    _atom_site_type_symbol
    _atom_site_fract_x
    _atom_site_fract_y
    _atom_site_fract_z
    _atom_site_occupancy
    P0      P    0.15746   0.42913   0.70685   1.000
    P1      P    0.34578   0.92940   0.79284   1.000
    P2      P    0.84254   0.56965   0.29304   1.000
    P3      P    0.65382   0.06959   0.20710   1.000
    C4      C    0.96923   0.31615   0.70139   1.000
    C5      C    0.53388   0.81613   0.79847   1.000
    C6      C    0.03066   0.68304   0.29886   1.000
    C7      C    0.46548   0.18260   0.20140   1.000
    O8      O    0.28058   0.40037   0.64354   1.000
    O9      O    0.22289   0.90118   0.85634   1.000
    O10     O    0.71928   0.59767   0.35641   1.000
    O11     O    0.77685   0.09860   0.14381   1.000
loop_
    _geom_bond_atom_site_label_1
    _geom_bond_atom_site_label_2
    _geom_bond_distance
    _geom_bond_site_symmetry_2
    _ccdc_geom_bond_type
    O11    P3        1.51731      .   S
    C7     P3        1.90659      .   S
    P2     C6        1.90821  1_655   S
    P2     O10       1.51790      .   S
    O8     P0        1.51793      .   S
    C4     P0        1.90577  1_655   S
    P1     C5        1.90690      .   S
    P1     O9        1.51779      .   S
