# CIF file generated by openbabel 2.4.90, see http://openbabel.sf.net
data_I
_chemical_name_common ''
_cell_length_a 7.816
_cell_length_b 10.681
_cell_length_c 17.955
_cell_angle_alpha 89.939
_cell_angle_beta 89.762
_cell_angle_gamma 89.996
_space_group_name_H-M_alt 'P 1'
_space_group_name_Hall 'P 1'
loop_
    _symmetry_equiv_pos_as_xyz
    x,y,z
loop_
    _atom_site_label
    _atom_site_type_symbol
    _atom_site_fract_x
    _atom_site_fract_y
    _atom_site_fract_z
    _atom_site_occupancy
    C0      C    0.69130   0.27643   0.77920   1.000
    C1      C    0.77001   0.43536   0.51381   1.000
    C2      C    0.04253   0.19096   0.72554   1.000
    C3      C    0.81237   0.77663   0.72079   1.000
    C4      C    0.72774   0.93644   0.98644   1.000
    C5      C    0.46075   0.69105   0.77428   1.000
    C6      C    0.30841   0.72477   0.22103   1.000
    C7      C    0.22964   0.56261   0.48626   1.000
    C8      C    0.95713   0.80812   0.27472   1.000
    C9      C    0.18775   0.22387   0.27913   1.000
    C10     C    0.26978   0.06222   0.01372   1.000
    C11     C    0.53905   0.30750   0.22553   1.000
