# CIF file generated by openbabel 2.4.90, see http://openbabel.sf.net
data_I
_chemical_name_common ''
_cell_length_a 7.816
_cell_length_b 10.681
_cell_length_c 17.955
_cell_angle_alpha 89.939
_cell_angle_beta 89.762
_cell_angle_gamma 89.996
_space_group_name_H-M_alt 'P 1'
_space_group_name_Hall 'P 1'
loop_
    _symmetry_equiv_pos_as_xyz
    x,y,z
loop_
    _atom_site_label
    _atom_site_type_symbol
    _atom_site_fract_x
    _atom_site_fract_y
    _atom_site_fract_z
    _atom_site_occupancy
    N0      N    0.71533   0.08410   0.17545   1.000
    N1      N    0.46548   0.18260   0.20140   1.000
    O2      O    0.55149   0.14385   0.19562   1.000
    N3      N    0.96923   0.31615   0.70139   1.000
    N4      N    0.21902   0.41475   0.67519   1.000
    O5      O    0.11765   0.37957   0.68897   1.000
    N6      N    0.78091   0.58366   0.32472   1.000
    N7      N    0.03066   0.68304   0.29886   1.000
    O8      O    0.94471   0.64402   0.30460   1.000
    N9      N    0.28433   0.91529   0.82459   1.000
    N10     N    0.53388   0.81613   0.79847   1.000
    O11     O    0.44798   0.85508   0.80430   1.000
    Zr12    Zr   0.82113   0.36609   0.32700   1.000
    O13     O    0.05955   0.25354   0.29878   1.000
    O14     O    0.85848   0.38003   0.32017   1.000
    O15     O    0.78671   0.24827   0.31478   1.000
    O16     O    0.81584   0.38198   0.45450   1.000
    O17     O    0.65250   0.28996   0.26722   1.000
    Zr18    Zr   0.32431   0.13292   0.82694   1.000
    O19     O    0.36177   0.11941   0.82011   1.000
    O20     O    0.29016   0.25055   0.81465   1.000
    O21     O    0.31654   0.11663   0.95444   1.000
    O22     O    0.56337   0.24576   0.79878   1.000
    O23     O    0.15593   0.20889   0.76718   1.000
    Zr24    Zr   0.67605   0.86712   0.17318   1.000
    O25     O    0.68303   0.88282   0.04565   1.000
    O26     O    0.43712   0.75449   0.20139   1.000
    O27     O    0.63841   0.88103   0.18009   1.000
    O28     O    0.70999   0.74910   0.18542   1.000
    O29     O    0.84417   0.79072   0.23300   1.000
    Zr30    Zr   0.17890   0.63290   0.67293   1.000
    O31     O    0.34725   0.70888   0.73268   1.000
    O32     O    0.18389   0.61670   0.54553   1.000
    O33     O    0.94006   0.74582   0.70116   1.000
    O34     O    0.14156   0.61889   0.67971   1.000
    O35     O    0.21303   0.75059   0.68518   1.000
loop_
    _geom_bond_atom_site_label_1
    _geom_bond_atom_site_label_2
    _geom_bond_distance
    _geom_bond_site_symmetry_2
    _ccdc_geom_bond_type
    N1     O2        0.79588      .   S
    N0     O2        1.47481      .   S
    N4     O5        0.91011      .   S
    N3     O5        1.36088  1_655   S
    N7     O8        0.79685  1_455   S
    N6     O8        1.47680      .   S
    N10    O11       0.79640      .   S
    N9     O11       1.47611      .   S
    Zr12   O13       2.27321  1_655   S
    N1     O13       3.69515      .   S
    Zr12   O14       0.34945      .   S
    N6     O14       2.25935      .   S
    Zr12   O15       1.30582      .   S
    N0     O15       3.10898      .   S
    Zr12   O16       2.29599      .   S
    N3     O16       4.64960      .   S
    Zr12   O17       1.88795      .   S
    N1     O17       2.20582      .   S
    Zr18   O19       0.34831      .   S
    N9     O19       2.26394  1_565   S
    Zr18   O20       1.30314      .   S
    N4     O20       3.10753      .   S
    Zr18   O21       2.29628      .   S
    N1     O21       4.64358  1_554   S
    Zr18   O22       2.27836      .   S
    N3     O22       3.69286      .   S
    Zr18   O23       1.88444      .   S
    N3     O23       2.20198  1_655   S
    Zr24   O25       2.29618      .   S
    N10    O25       4.64886  1_556   S
    Zr24   O26       2.27652      .   S
    N7     O26       3.69992      .   S
    Zr24   O27       0.35176      .   S
    N0     O27       2.25218  1_545   S
    Zr24   O28       1.30682      .   S
    N6     O28       3.11243      .   S
    Zr24   O29       1.88576      .   S
    N7     O29       2.20385  1_455   S
    Zr30   O31       1.88536      .   S
    N10    O31       2.20302      .   S
    Zr30   O32       2.29432      .   S
    N7     O32       4.64644      .   S
    Zr30   O33       2.27812  1_455   S
    N10    O33       3.69478      .   S
    Zr30   O34       0.34933      .   S
    N4     O34       2.26434      .   S
    Zr30   O35       1.30418      .   S
    N9     O35       3.11315      .   S
