# CIF file generated by openbabel 2.4.90, see http://openbabel.sf.net
data_I
_chemical_name_common ''
_cell_length_a 16.072
_cell_length_b 18.863
_cell_length_c 18.379
_cell_angle_alpha 90.289
_cell_angle_beta 90.035
_cell_angle_gamma 89.883
_space_group_name_H-M_alt 'P 1'
_space_group_name_Hall 'P 1'
loop_
    _symmetry_equiv_pos_as_xyz
    x,y,z
loop_
    _atom_site_label
    _atom_site_type_symbol
    _atom_site_fract_x
    _atom_site_fract_y
    _atom_site_fract_z
    _atom_site_occupancy
    Zn0     Zn   0.03147   0.71920   0.77817   1.000
    Zn1     Zn   0.02833   0.21898   0.72175   1.000
    Zn2     Zn   0.46847   0.21641   0.27808   1.000
    Zn3     Zn   0.97163   0.78101   0.27827   1.000
    Zn4     Zn   0.53151   0.78358   0.72193   1.000
    Zn5     Zn   0.52857   0.28363   0.77805   1.000
    Zn6     Zn   0.96853   0.28080   0.22184   1.000
    Zn7     Zn   0.47145   0.71632   0.22195   1.000
