# CIF file generated by openbabel 2.4.90, see http://openbabel.sf.net
data_I
_chemical_name_common ''
_cell_length_a 16.072
_cell_length_b 18.863
_cell_length_c 18.379
_cell_angle_alpha 90.289
_cell_angle_beta 90.035
_cell_angle_gamma 89.883
_space_group_name_H-M_alt 'P 1'
_space_group_name_Hall 'P 1'
loop_
    _symmetry_equiv_pos_as_xyz
    x,y,z
loop_
    _atom_site_label
    _atom_site_type_symbol
    _atom_site_fract_x
    _atom_site_fract_y
    _atom_site_fract_z
    _atom_site_occupancy
    N0      N    0.75007   0.67742   0.50108   1.000
    N1      N    0.74924   0.17694   0.00027   1.000
    N2      N    0.17104   0.48931   0.10573   1.000
    N3      N    0.17189   0.98903   0.39288   1.000
    N4      N    0.25072   0.82275   0.99971   1.000
    N5      N    0.32739   0.49004   0.89122   1.000
    N6      N    0.32897   0.99004   0.60670   1.000
    N7      N    0.82797   0.51068   0.89428   1.000
    N8      N    0.82731   0.01003   0.60717   1.000
    N9      N    0.24958   0.32254   0.49888   1.000
    N10     N    0.67103   0.00996   0.39331   1.000
    N11     N    0.67260   0.50991   0.10872   1.000
    Zr12    Zr   0.47145   0.71632   0.22195   1.000
    O13     O    0.38421   0.79037   0.27008   1.000
    O14     O    0.43726   0.65580   0.12637   1.000
    Zr15    Zr   0.52857   0.28363   0.77805   1.000
    O16     O    0.61561   0.20935   0.72993   1.000
    O17     O    0.56275   0.34415   0.87361   1.000
    Zr18    Zr   0.02833   0.21898   0.72175   1.000
    O19     O    0.06068   0.15733   0.62669   1.000
    O20     O    0.11544   0.29254   0.76958   1.000
    Zr21    Zr   0.53151   0.78358   0.72193   1.000
    O22     O    0.56421   0.84402   0.62687   1.000
    O23     O    0.61793   0.70953   0.77047   1.000
    Zr24    Zr   0.97163   0.78101   0.27827   1.000
    O25     O    0.88451   0.70744   0.23041   1.000
    O26     O    0.93741   0.84243   0.37334   1.000
    Zr27    Zr   0.03147   0.71920   0.77817   1.000
    O28     O    0.06243   0.65785   0.87295   1.000
    O29     O    0.11808   0.79273   0.72984   1.000
    Zr30    Zr   0.46847   0.21641   0.27808   1.000
    O31     O    0.38180   0.29045   0.22954   1.000
    O32     O    0.43578   0.15597   0.37314   1.000
    Zr33    Zr   0.96853   0.28080   0.22184   1.000
    O34     O    0.88192   0.20727   0.27017   1.000
    O35     O    0.93519   0.34215   0.12706   1.000
    O36     O    0.05066   0.79414   0.20163   1.000
    O37     O    0.44955   0.29597   0.70118   1.000
    O38     O    0.94930   0.20577   0.79838   1.000
    O39     O    0.55037   0.70397   0.29875   1.000
    O40     O    0.45194   0.79597   0.79833   1.000
    O41     O    0.04819   0.29392   0.29800   1.000
    O42     O    0.95172   0.70607   0.70200   1.000
    O43     O    0.54804   0.20393   0.20167   1.000
loop_
    _geom_bond_atom_site_label_1
    _geom_bond_atom_site_label_2
    _geom_bond_distance
    _geom_bond_site_symmetry_2
    _ccdc_geom_bond_type
    Zr12   O13       2.16349      .   S
    N3     O13       5.53646      .   S
    Zr12   O14       2.16150      .   S
    N5     O14       5.60797  1_556   S
    Zr15   O16       2.16402      .   S
    N8     O16       5.53853      .   S
    Zr15   O17       2.16123      .   S
    N11    O17       5.60732  1_554   S
    Zr18   O19       2.15721      .   S
    N3     O19       5.62024  1_565   S
    Zr18   O20       2.15705      .   S
    N5     O20       5.51706      .   S
    Zr21   O22       2.15686      .   S
    N10    O22       5.59804  1_545   S
    Zr21   O23       2.16315      .   S
    N7     O23       5.53781      .   S
    Zr24   O25       2.15732      .   S
    N11    O25       5.51751      .   S
    Zr24   O26       2.16239      .   S
    N8     O26       5.60748  1_545   S
    Zr27   O28       2.15360      .   S
    N2     O28       5.61809  1_554   S
    Zr27   O29       2.16150      .   S
    N6     O29       5.53259      .   S
    Zr30   O31       2.16569      .   S
    N2     O31       5.54505      .   S
    Zr30   O32       2.15681      .   S
    N6     O32       5.59789  1_565   S
    Zr33   O34       2.16146      .   S
    N10    O34       5.53253      .   S
    Zr33   O35       2.16267      .   S
    N7     O35       5.61125  1_556   S
    Zr24   O36       1.91469  1_655   S
    N4     O36       4.94407  1_556   S
    Zr15   O37       1.91393      .   S
    N9     O37       4.93983      .   S
    Zr18   O38       1.91470  1_455   S
    N1     O38       4.94407  1_554   S
    Zr12   O39       1.91191      .   S
    N0     O39       4.93749      .   S
    Zr21   O40       1.91300      .   S
    N4     O40       4.93969      .   S
    N9     O41       4.93677      .   S
    Zr33   O41       1.91187  1_655   S
    N0     O42       4.93996      .   S
    Zr27   O42       1.91301  1_455   S
    Zr30   O43       1.91322      .   S
    N1     O43       4.94029      .   S
