# CIF file generated by openbabel 2.4.90, see http://openbabel.sf.net
data_I
_chemical_name_common ''
_cell_length_a 16.072
_cell_length_b 18.863
_cell_length_c 18.379
_cell_angle_alpha 90.289
_cell_angle_beta 90.035
_cell_angle_gamma 89.883
_space_group_name_H-M_alt 'P 1'
_space_group_name_Hall 'P 1'
loop_
    _symmetry_equiv_pos_as_xyz
    x,y,z
loop_
    _atom_site_label
    _atom_site_type_symbol
    _atom_site_fract_x
    _atom_site_fract_y
    _atom_site_fract_z
    _atom_site_occupancy
    Zr0     Zr   0.47145   0.71632   0.22195   1.000
    Zr1     Zr   0.03147   0.71920   0.77817   1.000
    Zr2     Zr   0.02833   0.21898   0.72175   1.000
    Zr3     Zr   0.46847   0.21641   0.27808   1.000
    Zr4     Zr   0.97163   0.78101   0.27827   1.000
    Zr5     Zr   0.53151   0.78358   0.72193   1.000
    Zr6     Zr   0.52857   0.28363   0.77805   1.000
    Zr7     Zr   0.96853   0.28080   0.22184   1.000
    N8      N    0.75007   0.67742   0.50108   1.000
    O9      O    0.87972   0.67678   0.62315   1.000
    O10     O    0.62142   0.67559   0.37825   1.000
    O11     O    0.63717   0.70766   0.37284   1.000
    O12     O    0.86422   0.70909   0.62851   1.000
    N13     N    0.74924   0.17694   0.00027   1.000
    O14     O    0.61993   0.17533   0.12252   1.000
    O15     O    0.87830   0.17655   0.87769   1.000
    O16     O    0.86223   0.20858   0.87234   1.000
    O17     O    0.63526   0.20760   0.12799   1.000
    N18     N    0.17104   0.48931   0.10573   1.000
    O19     O    0.09339   0.59650   0.96773   1.000
    O20     O    0.29513   0.36450   0.18100   1.000
    N21     N    0.17189   0.98903   0.39288   1.000
    O22     O    0.09303   0.09568   0.53162   1.000
    O23     O    0.29696   0.86442   0.31821   1.000
    N24     N    0.25072   0.82275   0.99971   1.000
    O25     O    0.38003   0.82450   0.87748   1.000
    O26     O    0.12167   0.82330   0.12232   1.000
    O27     O    0.13772   0.79125   0.12765   1.000
    O28     O    0.36471   0.79223   0.87199   1.000
    N29     N    0.32739   0.49004   0.89122   1.000
    O30     O    0.40307   0.59528   0.03079   1.000
    O31     O    0.20256   0.36611   0.81741   1.000
    N32     N    0.32897   0.99004   0.60670   1.000
    O33     O    0.40309   0.09553   0.46820   1.000
    O34     O    0.20469   0.86625   0.68151   1.000
    N35     N    0.82797   0.51068   0.89428   1.000
    O36     O    0.90186   0.40350   0.03228   1.000
    O37     O    0.70436   0.63549   0.81901   1.000
    N38     N    0.82731   0.01003   0.60717   1.000
    O39     O    0.70265   0.13507   0.68182   1.000
    O40     O    0.90319   0.90385   0.46841   1.000
    N41     N    0.24958   0.32254   0.49888   1.000
    O42     O    0.12010   0.32319   0.37684   1.000
    O43     O    0.37842   0.32435   0.62145   1.000
    O44     O    0.36265   0.29229   0.62716   1.000
    O45     O    0.13560   0.29089   0.37146   1.000
    N46     N    0.67103   0.00996   0.39331   1.000
    O47     O    0.59691   0.90446   0.53182   1.000
    O48     O    0.79531   0.13375   0.31850   1.000
    N49     N    0.67260   0.50991   0.10872   1.000
    O50     O    0.59693   0.40467   0.96918   1.000
    O51     O    0.79739   0.63387   0.18255   1.000
loop_
    _geom_bond_atom_site_label_1
    _geom_bond_atom_site_label_2
    _geom_bond_distance
    _geom_bond_site_symmetry_2
    _ccdc_geom_bond_type
    N8     O9        3.06092      .   S
    Zr1    O9        3.83179  1_455   S
    N8     O10       3.06045      .   S
    Zr0    O10       3.82870      .   S
    N8     O11       3.02949      .   S
    Zr0    O11       3.84771      .   S
    N8     O12       3.03192      .   S
    Zr1    O12       3.84906  1_455   S
    N13    O14       3.06182      .   S
    Zr3    O14       3.83129      .   S
    N13    O15       3.06323  1_554   S
    Zr2    O15       3.83518  1_455   S
    N13    O16       3.03423  1_554   S
    Zr2    O16       3.85238  1_455   S
    N13    O17       3.03112      .   S
    Zr3    O17       3.85034      .   S
    N18    O19       3.48084  1_554   S
    Zr1    O19       4.30720      .   S
    N18    O20       3.38299      .   S
    Zr3    O20       4.33137      .   S
    N21    O22       3.47814  1_565   S
    Zr2    O22       4.31441      .   S
    N21    O23       3.37649      .   S
    Zr0    O23       4.32699      .   S
    N24    O25       3.06159      .   S
    Zr5    O25       3.83072      .   S
    N24    O26       3.06358  1_556   S
    Zr4    O26       3.83488  1_655   S
    N24    O27       3.03394  1_556   S
    Zr4    O27       3.85261  1_655   S
    N24    O28       3.03059      .   S
    Zr5    O28       3.85005      .   S
    N29    O30       3.45760  1_556   S
    Zr0    O30       4.32299      .   S
    N29    O31       3.36360      .   S
    Zr2    O31       4.31410      .   S
    N32    O33       3.45292  1_565   S
    Zr3    O33       4.31362      .   S
    N32    O34       3.37455      .   S
    Zr1    O34       4.32299      .   S
    N35    O36       3.45973  1_556   S
    Zr7    O36       4.32535      .   S
    N35    O37       3.37833      .   S
    Zr5    O37       4.32629      .   S
    N38    O39       3.37810      .   S
    Zr6    O39       4.32804      .   S
    N38    O40       3.45611  1_545   S
    Zr4    O40       4.32479      .   S
    N41    O42       3.05871      .   S
    Zr7    O42       3.82966  1_655   S
    N41    O43       3.05901      .   S
    Zr6    O43       3.83453      .   S
    N41    O44       3.03158      .   S
    Zr6    O44       3.84999      .   S
    N41    O45       3.03007      .   S
    Zr7    O45       3.84663  1_655   S
    N46    O47       3.45302  1_545   S
    Zr5    O47       4.31372      .   S
    N46    O48       3.37452      .   S
    Zr7    O48       4.32293      .   S
    N49    O50       3.45721  1_554   S
    Zr6    O50       4.32247      .   S
    N49    O51       3.36379      .   S
    Zr4    O51       4.31464      .   S
