# CIF file generated by openbabel 2.4.90, see http://openbabel.sf.net
data_I
_chemical_name_common ''
_cell_length_a 16.072
_cell_length_b 18.863
_cell_length_c 18.379
_cell_angle_alpha 90.289
_cell_angle_beta 90.035
_cell_angle_gamma 89.883
_space_group_name_H-M_alt 'P 1'
_space_group_name_Hall 'P 1'
loop_
    _symmetry_equiv_pos_as_xyz
    x,y,z
loop_
    _atom_site_label
    _atom_site_type_symbol
    _atom_site_fract_x
    _atom_site_fract_y
    _atom_site_fract_z
    _atom_site_occupancy
    N0      N    0.75007   0.67742   0.50108   1.000
    N1      N    0.74924   0.17694   0.00027   1.000
    N2      N    0.17104   0.48931   0.10573   1.000
    N3      N    0.17189   0.98903   0.39288   1.000
    N4      N    0.25072   0.82275   0.99971   1.000
    N5      N    0.32739   0.49004   0.89122   1.000
    N6      N    0.32897   0.99004   0.60670   1.000
    N7      N    0.82797   0.51068   0.89428   1.000
    N8      N    0.82731   0.01003   0.60717   1.000
    N9      N    0.24958   0.32254   0.49888   1.000
    N10     N    0.67103   0.00996   0.39331   1.000
    N11     N    0.67260   0.50991   0.10872   1.000
    Zr12    Zr   0.47145   0.71632   0.22195   1.000
    O13     O    0.38421   0.79037   0.27008   1.000
    O14     O    0.54644   0.69595   0.30010   1.000
    O15     O    0.55431   0.71199   0.29739   1.000
    O16     O    0.43726   0.65580   0.12637   1.000
    Zr17    Zr   0.52857   0.28363   0.77805   1.000
    O18     O    0.44561   0.28796   0.70260   1.000
    O19     O    0.61561   0.20935   0.72993   1.000
    O20     O    0.56275   0.34415   0.87361   1.000
    O21     O    0.45349   0.30399   0.69975   1.000
    Zr22    Zr   0.02833   0.21898   0.72175   1.000
    O23     O    0.06068   0.15733   0.62669   1.000
    O24     O    0.94528   0.21378   0.79704   1.000
    O25     O    0.95331   0.19776   0.79972   1.000
    O26     O    0.11544   0.29254   0.76958   1.000
    Zr27    Zr   0.53151   0.78358   0.72193   1.000
    O28     O    0.56421   0.84402   0.62687   1.000
    O29     O    0.45577   0.80404   0.79971   1.000
    O30     O    0.44811   0.78790   0.79696   1.000
    O31     O    0.61793   0.70953   0.77047   1.000
    Zr32    Zr   0.97163   0.78101   0.27827   1.000
    O33     O    0.88451   0.70744   0.23041   1.000
    O34     O    0.93741   0.84243   0.37334   1.000
    O35     O    0.05467   0.78613   0.20296   1.000
    O36     O    0.04665   0.80215   0.20029   1.000
    Zr37    Zr   0.03147   0.71920   0.77817   1.000
    O38     O    0.95559   0.69799   0.70066   1.000
    O39     O    0.94785   0.71414   0.70334   1.000
    O40     O    0.06243   0.65785   0.87295   1.000
    O41     O    0.11808   0.79273   0.72984   1.000
    Zr42    Zr   0.46847   0.21641   0.27808   1.000
    O43     O    0.38180   0.29045   0.22954   1.000
    O44     O    0.54420   0.19587   0.20030   1.000
    O45     O    0.55187   0.21200   0.20304   1.000
    O46     O    0.43578   0.15597   0.37314   1.000
    Zr47    Zr   0.96853   0.28080   0.22184   1.000
    O48     O    0.04431   0.30199   0.29934   1.000
    O49     O    0.05207   0.28584   0.29665   1.000
    O50     O    0.88192   0.20727   0.27017   1.000
    O51     O    0.93519   0.34215   0.12706   1.000
loop_
    _geom_bond_atom_site_label_1
    _geom_bond_atom_site_label_2
    _geom_bond_distance
    _geom_bond_site_symmetry_2
    _ccdc_geom_bond_type
    Zr12   O13       2.16349      .   S
    N3     O13       5.53646      .   S
    Zr12   O14       1.91435      .   S
    N0     O14       4.94689      .   S
    Zr12   O15       1.92385      .   S
    N0     O15       4.93366      .   S
    Zr12   O16       2.16150      .   S
    N5     O16       5.60797  1_556   S
    Zr17   O18       1.92499      .   S
    N9     O18       4.93689      .   S
    Zr17   O19       2.16402      .   S
    N8     O19       5.53853      .   S
    Zr17   O20       2.16123      .   S
    N11    O20       5.60732  1_554   S
    Zr17   O21       1.91727      .   S
    N9     O21       4.94835      .   S
    Zr22   O23       2.15721      .   S
    N3     O23       5.62024  1_565   S
    Zr22   O24       1.92619  1_455   S
    N1     O24       4.94072  1_554   S
    Zr22   O25       1.91759  1_455   S
    N1     O25       4.95300  1_554   S
    Zr22   O26       2.15705      .   S
    N5     O26       5.51706      .   S
    Zr27   O28       2.15686      .   S
    N10    O28       5.59804  1_545   S
    Zr27   O29       1.91536      .   S
    N4     O29       4.94913      .   S
    Zr27   O30       1.92502      .   S
    N4     O30       4.93582      .   S
    Zr27   O31       2.16315      .   S
    N7     O31       5.53781      .   S
    Zr32   O33       2.15732      .   S
    N11    O33       5.51751      .   S
    Zr32   O34       2.16239      .   S
    N8     O34       5.60748  1_545   S
    Zr32   O35       1.92631  1_655   S
    N4     O35       4.94057  1_556   S
    Zr32   O36       1.91744  1_655   S
    N4     O36       4.95315  1_556   S
    Zr37   O38       1.91589  1_455   S
    N0     O38       4.94890      .   S
    Zr37   O39       1.92453  1_455   S
    N0     O39       4.93661      .   S
    Zr37   O40       2.15360      .   S
    N2     O40       5.61809  1_554   S
    Zr37   O41       2.16150      .   S
    N6     O41       5.53259      .   S
    Zr42   O43       2.16569      .   S
    N2     O43       5.54505      .   S
    Zr42   O44       1.91565      .   S
    N1     O44       4.94965      .   S
    Zr42   O45       1.92517      .   S
    N1     O45       4.93649      .   S
    Zr42   O46       2.15681      .   S
    N6     O46       5.59789  1_565   S
    Zr47   O48       1.91483  1_655   S
    N9     O48       4.94562      .   S
    Zr47   O49       1.92332  1_655   S
    N9     O49       4.93350      .   S
    Zr47   O50       2.16146      .   S
    N10    O50       5.53253      .   S
    Zr47   O51       2.16267      .   S
    N7     O51       5.61125  1_556   S
