# CIF file generated by openbabel 2.4.90, see http://openbabel.sf.net
data_I
_chemical_name_common ''
_cell_length_a 18.923
_cell_length_b 18.949
_cell_length_c 18.947
_cell_angle_alpha 90
_cell_angle_beta 89.998
_cell_angle_gamma 89.999
_space_group_name_H-M_alt 'P 1'
_space_group_name_Hall 'P 1'
loop_
    _symmetry_equiv_pos_as_xyz
    x,y,z
loop_
    _atom_site_label
    _atom_site_type_symbol
    _atom_site_fract_x
    _atom_site_fract_y
    _atom_site_fract_z
    _atom_site_occupancy
    H0      H    0.71771   0.55641   0.86451   1.000
    H1      H    0.28159   0.55697   0.13490   1.000
    H2      H    0.71778   0.44343   0.13559   1.000
    H3      H    0.55633   0.71755   0.13520   1.000
    H4      H    0.55635   0.28257   0.86469   1.000
    H5      H    0.44353   0.71776   0.86504   1.000
    H6      H    0.71776   0.44362   0.86444   1.000
    H7      H    0.28287   0.55598   0.86370   1.000
    H8      H    0.71742   0.55619   0.13586   1.000
    H9      H    0.44416   0.71685   0.13590   1.000
    H10     H    0.55587   0.28289   0.13560   1.000
    H11     H    0.55591   0.71706   0.86447   1.000
    H12     H    0.76830   0.76826   0.60807   1.000
    H13     H    0.23182   0.23185   0.60782   1.000
    H14     H    0.23154   0.76824   0.39202   1.000
    H15     H    0.76807   0.23179   0.39222   1.000
    H16     H    0.60794   0.76854   0.76869   1.000
    H17     H    0.60769   0.23155   0.23162   1.000
    H18     H    0.39200   0.23140   0.76861   1.000
    H19     H    0.39168   0.76876   0.23118   1.000
    H20     H    0.76828   0.60790   0.76841   1.000
    H21     H    0.23157   0.60790   0.23166   1.000
    H22     H    0.76833   0.39188   0.23161   1.000
    H23     H    0.23164   0.39201   0.76835   1.000
    H24     H    0.76836   0.76834   0.39201   1.000
    H25     H    0.23144   0.23153   0.39172   1.000
    H26     H    0.76864   0.23158   0.60816   1.000
    H27     H    0.23167   0.76843   0.60801   1.000
    H28     H    0.76831   0.60797   0.23167   1.000
    H29     H    0.23171   0.60808   0.76837   1.000
    H30     H    0.23176   0.39216   0.23163   1.000
    H31     H    0.76831   0.39219   0.76826   1.000
    H32     H    0.60784   0.76847   0.23155   1.000
    H33     H    0.60817   0.23137   0.76868   1.000
    H34     H    0.39238   0.76837   0.76828   1.000
    H35     H    0.39216   0.23160   0.23146   1.000
    C36     C    0.67267   0.59034   0.87404   1.000
    C37     C    0.32688   0.59066   0.12569   1.000
    C38     C    0.67270   0.40954   0.12607   1.000
    C39     C    0.74542   0.34468   0.74538   1.000
    C40     C    0.65528   0.74544   0.25457   1.000
    C41     C    0.65556   0.25446   0.74561   1.000
    C42     C    0.34488   0.74540   0.74532   1.000
    C43     C    0.59037   0.67258   0.12585   1.000
    C44     C    0.59045   0.32748   0.87413   1.000
    C45     C    0.40959   0.67269   0.87424   1.000
    C46     C    0.67277   0.40962   0.87400   1.000
    C47     C    0.32763   0.59019   0.87364   1.000
    C48     C    0.67254   0.59028   0.12617   1.000
    C49     C    0.40977   0.67224   0.12610   1.000
    C50     C    0.59013   0.32765   0.12606   1.000
    C51     C    0.59016   0.67230   0.87403   1.000
    C52     C    0.77615   0.68471   0.68486   1.000
    C53     C    0.22384   0.31526   0.68474   1.000
    C54     C    0.22367   0.68473   0.31518   1.000
    C55     C    0.77607   0.31519   0.31520   1.000
    C56     C    0.68476   0.77625   0.68500   1.000
    C57     C    0.68451   0.22381   0.31531   1.000
    C58     C    0.31527   0.22376   0.68483   1.000
    C59     C    0.31498   0.77634   0.31499   1.000
    C60     C    0.68472   0.68481   0.77630   1.000
    C61     C    0.65167   0.65167   0.83804   1.000
    C62     C    0.31503   0.68490   0.22361   1.000
    C63     C    0.34801   0.65184   0.16186   1.000
    C64     C    0.68460   0.31515   0.22382   1.000
    C65     C    0.65166   0.34822   0.16200   1.000
    C66     C    0.31523   0.31514   0.77628   1.000
    C67     C    0.68471   0.77625   0.31510   1.000
    C68     C    0.31518   0.22373   0.31499   1.000
    C69     C    0.68500   0.22367   0.68500   1.000
    C70     C    0.31540   0.77624   0.68475   1.000
    C71     C    0.77616   0.68476   0.31523   1.000
    C72     C    0.22388   0.68484   0.68477   1.000
    C73     C    0.22380   0.31528   0.31511   1.000
    C74     C    0.77630   0.31529   0.68480   1.000
    C75     C    0.68473   0.68486   0.22374   1.000
    C76     C    0.65172   0.65176   0.16202   1.000
    C77     C    0.68490   0.31514   0.77635   1.000
    C78     C    0.65192   0.34819   0.83810   1.000
    C79     C    0.31537   0.68487   0.77621   1.000
    C80     C    0.34836   0.65178   0.83793   1.000
    C81     C    0.31527   0.31521   0.22365   1.000
    C82     C    0.74532   0.74532   0.65551   1.000
    C83     C    0.25473   0.25472   0.65533   1.000
    C84     C    0.25448   0.74534   0.34454   1.000
    C85     C    0.74513   0.25469   0.34474   1.000
    C86     C    0.65531   0.74544   0.74500   1.000
    C87     C    0.65510   0.25459   0.25460   1.000
    C88     C    0.34466   0.25452   0.74548   1.000
    C89     C    0.34438   0.74559   0.25434   1.000
    C90     C    0.74529   0.65532   0.74544   1.000
    C91     C    0.25451   0.65537   0.25458   1.000
    C92     C    0.74524   0.34455   0.25467   1.000
    C93     C    0.25466   0.34462   0.74536   1.000
    C94     C    0.74532   0.74535   0.34460   1.000
    C95     C    0.25456   0.25461   0.34440   1.000
    C96     C    0.74556   0.25461   0.65550   1.000
    C97     C    0.25475   0.74540   0.65536   1.000
    C98     C    0.74530   0.65538   0.25465   1.000
    C99     C    0.25474   0.65546   0.74535   1.000
    C100    C    0.25470   0.34470   0.25457   1.000
    C101    C    0.34469   0.25460   0.25445   1.000
    N102    N    0.62715   0.57611   0.92695   1.000
    N103    N    0.37249   0.57636   0.07288   1.000
    N104    N    0.62722   0.42378   0.07313   1.000
    N105    N    0.57627   0.62698   0.07303   1.000
    N106    N    0.57637   0.37304   0.92699   1.000
    N107    N    0.42367   0.62708   0.92706   1.000
    N108    N    0.62726   0.42379   0.92693   1.000
    N109    N    0.37303   0.57606   0.92668   1.000
    N110    N    0.62708   0.57614   0.07319   1.000
    N111    N    0.42375   0.62675   0.07319   1.000
    N112    N    0.57616   0.37320   0.07316   1.000
    N113    N    0.57612   0.62674   0.92690   1.000
loop_
    _geom_bond_atom_site_label_1
    _geom_bond_atom_site_label_2
    _geom_bond_distance
    _geom_bond_site_symmetry_2
    _ccdc_geom_bond_type
    N103   N111      1.36120      .   S
    N103   C37       1.34886      .   S
    N105   N110      1.36102      .   S
    N105   C43       1.34871      .   S
    N104   N112      1.36095      .   S
    N104   C38       1.34893      .   S
    N112   C50       1.34881      .   S
    N111   C49       1.34825      .   S
    N110   C48       1.34892      .   S
    C37    H1        1.08285      .   S
    C37    C63       1.40485      .   S
    C43    H3        1.08280      .   S
    C43    C76       1.40469      .   S
    C50    H10       1.08277      .   S
    C50    C65       1.40415      .   S
    C38    H2        1.08288      .   S
    C38    C65       1.40434      .   S
    C49    H9        1.08288      .   S
    C49    C63       1.40499      .   S
    C48    H8        1.08287      .   S
    C48    C76       1.40489      .   S
    C63    C62       1.46652      .   S
    C65    C64       1.46738      .   S
    C76    C75       1.46662      .   S
    C62    C89       1.40347      .   S
    C62    C91       1.40327      .   S
    C81    C101      1.40346      .   S
    C81    C100      1.40323      .   S
    C75    C40       1.40341      .   S
    C75    C98       1.40323      .   S
    C64    C87       1.40288      .   S
    C64    C92       1.40326      .   S
    H19    C89       1.08926      .   S
    H35    C101      1.08925      .   S
    H32    C40       1.08921      .   S
    H22    C92       1.08914      .   S
    H17    C87       1.08873      .   S
    H30    C100      1.08916      .   S
    H21    C91       1.08914      .   S
    H28    C98       1.08914      .   S
    C89    C59       1.40335      .   S
    C101   C68       1.40341      .   S
    C40    C67       1.40233      .   S
    C100   C73       1.40304      .   S
    C91    C54       1.40292      .   S
    C87    C57       1.40466      .   S
    C98    C71       1.40302      .   S
    C92    C55       1.40185      .   S
    C68    C95       1.40308      .   S
    C59    C84       1.40322      .   S
    C67    C94       1.40371      .   S
    C73    C95       1.40295      .   S
    C54    C84       1.40309      .   S
    C55    C85       1.40362      .   S
    C71    C94       1.40296      .   S
    C57    C85       1.40327      .   S
    C95    H25       1.08930      .   S
    C84    H14       1.08905      .   S
    C94    H24       1.08942      .   S
    C85    H15       1.08907      .   S
    H13    C83       1.08910      .   S
    H27    C97       1.08905      .   S
    H12    C82       1.08905      .   S
    H26    C96       1.08885      .   S
    C83    C53       1.40299      .   S
    C83    C58       1.40324      .   S
    C97    C70       1.40328      .   S
    C97    C72       1.40306      .   S
    C96    C74       1.40308      .   S
    C96    C69       1.40330      .   S
    C82    C52       1.40303      .   S
    C82    C56       1.40322      .   S
    C53    C93       1.40317      .   S
    C70    C42       1.40352      .   S
    C72    C99       1.40305      .   S
    C74    C39       1.40327      .   S
    C58    C88       1.40341      .   S
    C52    C90       1.40306      .   S
    C56    C86       1.39416      .   S
    C69    C41       1.40343      .   S
    C86    H16       1.09384      .   S
    C86    C60       1.40759      .   S
    C42    H34       1.08924      .   S
    C42    C79       1.40347      .   S
    C99    H29       1.08915      .   S
    C99    C79       1.40325      .   S
    C93    H23       1.08908      .   S
    C93    C66       1.40321      .   S
    C39    H31       1.08913      .   S
    C39    C77       1.40321      .   S
    C90    H20       1.08913      .   S
    C90    C60       1.40269      .   S
    C88    H18       1.08927      .   S
    C88    C66       1.40353      .   S
    C41    H33       1.08923      .   S
    C41    C77       1.40345      .   S
    C79    C80       1.46649      .   S
    C60    C61       1.46764      .   S
    C77    C78       1.46645      .   S
    C80    C47       1.40484      .   S
    C80    C45       1.40463      .   S
    C61    C51       1.40458      .   S
    C61    C36       1.40479      .   S
    C78    C46       1.40479      .   S
    C78    C44       1.40467      .   S
    H7     C47       1.08313      .   S
    H6     C46       1.08287      .   S
    H11    C51       1.08273      .   S
    H0     C36       1.08285      .   S
    H4     C44       1.08278      .   S
    H5     C45       1.08280      .   S
    C47    N109      1.34902      .   S
    C46    N108      1.34897      .   S
    C51    N113      1.34889      .   S
    C36    N102      1.34896      .   S
    C44    N106      1.34880      .   S
    C45    N107      1.34877      .   S
    N109   N107      1.36119      .   S
    N113   N102      1.36097      .   S
    N108   N106      1.36095      .   S
