# CIF file generated by openbabel 2.4.90, see http://openbabel.sf.net
data_I
_chemical_name_common ''
_cell_length_a 18.923
_cell_length_b 18.949
_cell_length_c 18.947
_cell_angle_alpha 90
_cell_angle_beta 89.998
_cell_angle_gamma 89.999
_space_group_name_H-M_alt 'P 1'
_space_group_name_Hall 'P 1'
loop_
    _symmetry_equiv_pos_as_xyz
    x,y,z
loop_
    _atom_site_label
    _atom_site_type_symbol
    _atom_site_fract_x
    _atom_site_fract_y
    _atom_site_fract_z
    _atom_site_occupancy
    Cu0     Cu   0.00001   0.37295   0.49990   1.000
    Cu1     Cu   0.50014   0.00005   0.62702   1.000
    Cu2     Cu   0.49983   0.99994   0.37298   1.000
    Cu3     Cu   0.37258   0.50003   0.99995   1.000
    Cu4     Cu   0.62795   0.99997   0.50015   1.000
    Cu5     Cu   0.37201   0.00002   0.49985   1.000
    Cu6     Cu   0.99992   0.49995   0.37293   1.000
    Cu7     Cu   0.00006   0.50006   0.62709   1.000
    Cu8     Cu   0.50002   0.37300   0.99995   1.000
    H9      H    0.86463   0.71769   0.55663   1.000
    H10     H    0.13493   0.28196   0.55685   1.000
    H11     H    0.13529   0.71757   0.44353   1.000
    H12     H    0.86515   0.28175   0.44300   1.000
    H13     H    0.55592   0.86441   0.71710   1.000
    H14     H    0.55537   0.13611   0.28355   1.000
    H15     H    0.44458   0.13626   0.71642   1.000
    H16     H    0.44431   0.86389   0.28337   1.000
    H17     H    0.28186   0.44320   0.86481   1.000
    H18     H    0.71758   0.86404   0.44375   1.000
    H19     H    0.28280   0.13638   0.44406   1.000
    H20     H    0.71793   0.13563   0.55649   1.000
    H21     H    0.28287   0.86365   0.55583   1.000
    H22     H    0.86476   0.55663   0.28221   1.000
    H23     H    0.13525   0.55674   0.71780   1.000
    H24     H    0.13479   0.44309   0.28170   1.000
    H25     H    0.86519   0.44319   0.71810   1.000
    Cu26    Cu   0.99998   0.62706   0.50005   1.000
    H27     H    0.44352   0.28234   0.13495   1.000
    H28     H    0.13655   0.28355   0.44448   1.000
    H29     H    0.86386   0.71684   0.44425   1.000
    H30     H    0.86346   0.28371   0.55534   1.000
    H31     H    0.13605   0.71700   0.55580   1.000
    H32     H    0.44307   0.13456   0.28185   1.000
    H33     H    0.44364   0.86490   0.71700   1.000
    H34     H    0.55630   0.86470   0.28260   1.000
    H35     H    0.55657   0.13515   0.71763   1.000
    H36     H    0.28289   0.44417   0.13610   1.000
    H37     H    0.28148   0.13508   0.55710   1.000
    H38     H    0.71813   0.86455   0.55681   1.000
    H39     H    0.28115   0.86525   0.44267   1.000
    H40     H    0.71800   0.13547   0.44330   1.000
    H41     H    0.13646   0.44453   0.71652   1.000
    H42     H    0.86344   0.44445   0.28347   1.000
    H43     H    0.86394   0.55576   0.71696   1.000
    H44     H    0.13602   0.55566   0.28316   1.000
    H45     H    0.44423   0.28311   0.86416   1.000
    C46     C    0.87400   0.67261   0.59040   1.000
    C47     C    0.12579   0.32722   0.59053   1.000
    C48     C    0.12592   0.67251   0.40965   1.000
    C49     C    0.87424   0.32705   0.40930   1.000
    C50     C    0.59027   0.87399   0.67241   1.000
    C51     C    0.58982   0.12632   0.32811   1.000
    C52     C    0.41005   0.12636   0.67194   1.000
    C53     C    0.40973   0.87377   0.32780   1.000
    C54     C    0.32708   0.40943   0.87415   1.000
    C55     C    0.67263   0.87378   0.40974   1.000
    C56     C    0.32744   0.12639   0.40973   1.000
    C57     C    0.67298   0.12601   0.59053   1.000
    C58     C    0.32764   0.87359   0.59001   1.000
    C59     C    0.87407   0.59044   0.32734   1.000
    C60     C    0.12594   0.59055   0.67273   1.000
    C61     C    0.12570   0.40944   0.32707   1.000
    C62     C    0.87430   0.40953   0.67282   1.000
    C63     C    0.40957   0.32741   0.12570   1.000
    C64     C    0.12654   0.32802   0.41002   1.000
    C65     C    0.87364   0.67219   0.40996   1.000
    C66     C    0.87348   0.32814   0.58984   1.000
    C67     C    0.12631   0.67232   0.59013   1.000
    C68     C    0.40922   0.12550   0.32704   1.000
    C69     C    0.40967   0.87421   0.67240   1.000
    C70     C    0.59036   0.87412   0.32755   1.000
    C71     C    0.59067   0.12577   0.67270   1.000
    C72     C    0.32764   0.40994   0.12627   1.000
    C73     C    0.32688   0.12581   0.59064   1.000
    C74     C    0.67298   0.87403   0.59064   1.000
    C75     C    0.32655   0.87440   0.40910   1.000
    C76     C    0.67276   0.12603   0.40964   1.000
    C77     C    0.12652   0.41010   0.67201   1.000
    C78     C    0.87343   0.41000   0.32796   1.000
    C79     C    0.87366   0.59003   0.67227   1.000
    C80     C    0.12627   0.58995   0.32783   1.000
    C81     C    0.40987   0.32776   0.87385   1.000
    C82     C    0.83784   0.65162   0.65173   1.000
    C83     C    0.16216   0.34837   0.65100   1.000
    C84     C    0.16208   0.65153   0.34840   1.000
    C85     C    0.83781   0.34825   0.34836   1.000
    C86     C    0.65184   0.83801   0.65191   1.000
    C87     C    0.65152   0.16213   0.34847   1.000
    C88     C    0.34823   0.16204   0.65170   1.000
    C89     C    0.34791   0.83809   0.34808   1.000
    C90     C    0.34821   0.34823   0.83800   1.000
    C91     C    0.65176   0.83799   0.34826   1.000
    C92     C    0.34809   0.16195   0.34804   1.000
    C93     C    0.65209   0.16187   0.65198   1.000
    C94     C    0.34841   0.83792   0.65160   1.000
    C95     C    0.83785   0.65164   0.34835   1.000
    C96     C    0.16212   0.65177   0.65173   1.000
    C97     C    0.16210   0.34839   0.34822   1.000
    C98     C    0.83791   0.34849   0.65164   1.000
    C99     C    0.34833   0.34835   0.16199   1.000
    N100    N    0.92687   0.62704   0.57624   1.000
    N101    N    0.07298   0.37285   0.57625   1.000
    N102    N    0.07308   0.62691   0.42391   1.000
    N103    N    0.92705   0.37268   0.42364   1.000
    N104    N    0.57639   0.92692   0.62688   1.000
    N105    N    0.57583   0.07335   0.37356   1.000
    N106    N    0.42402   0.07337   0.62651   1.000
    N107    N    0.42360   0.92676   0.37300   1.000
    N108    N    0.37264   0.42372   0.92700   1.000
    N109    N    0.62728   0.92678   0.42405   1.000
    N110    N    0.37275   0.07325   0.42379   1.000
    N111    N    0.62754   0.07302   0.57638   1.000
    N112    N    0.37296   0.92663   0.57574   1.000
    N113    N    0.92691   0.57620   0.37294   1.000
    N114    N    0.07305   0.57634   0.62717   1.000
    N115    N    0.07292   0.42370   0.37273   1.000
    N116    N    0.92706   0.42384   0.62714   1.000
    N117    N    0.42371   0.37303   0.07292   1.000
    N118    N    0.07347   0.37344   0.42403   1.000
    N119    N    0.92664   0.62670   0.42401   1.000
    N120    N    0.92652   0.37360   0.57583   1.000
    N121    N    0.07330   0.62684   0.57610   1.000
    N122    N    0.42330   0.07273   0.37270   1.000
    N123    N    0.42385   0.92701   0.62688   1.000
    N124    N    0.57621   0.92697   0.37307   1.000
    N125    N    0.57665   0.07290   0.62714   1.000
    N126    N    0.37308   0.42403   0.07325   1.000
    N127    N    0.37238   0.07299   0.57612   1.000
    N128    N    0.62754   0.92699   0.57638   1.000
    N129    N    0.37211   0.92723   0.42345   1.000
    N130    N    0.62733   0.07314   0.42409   1.000
    N131    N    0.07347   0.42411   0.62656   1.000
    N132    N    0.92652   0.42397   0.37337   1.000
    N133    N    0.92666   0.57601   0.62677   1.000
    N134    N    0.07332   0.57587   0.37338   1.000
    N135    N    0.42384   0.37328   0.92678   1.000
loop_
    _geom_bond_atom_site_label_1
    _geom_bond_atom_site_label_2
    _geom_bond_distance
    _geom_bond_site_symmetry_2
    _ccdc_geom_bond_type
    N117   N126      1.36094      .   S
    N117   C63       1.34869      .   S
    N117   Cu8       1.99913  1_554   S
    N126   C72       1.34902      .   S
    N126   Cu3       2.00067  1_554   S
    C63    H27       1.08282      .   S
    C63    C99       1.40468      .   S
    C72    H36       1.08279      .   S
    C72    C99       1.40479      .   S
    H24    C61       1.08403      .   S
    H32    C68       1.08294      .   S
    H22    C59       1.08292      .   S
    H34    C70       1.08284      .   S
    H44    C80       1.08276      .   S
    H16    C53       1.08246      .   S
    H42    C78       1.08274      .   S
    H14    C51       1.08277      .   S
    C68    C92       1.40472      .   S
    C68    N122      1.34879      .   S
    C61    C97       1.40469      .   S
    C61    N115      1.34873      .   S
    C59    C95       1.40462      .   S
    C59    N113      1.34880      .   S
    C70    C91       1.40444      .   S
    C70    N124      1.34855      .   S
    C53    C89       1.40472      .   S
    C53    N107      1.34554      .   S
    C80    C84       1.40465      .   S
    C80    N134      1.34899      .   S
    C78    C85       1.40459      .   S
    C78    N132      1.34903      .   S
    C51    C87       1.40444      .   S
    C51    N105      1.34868      .   S
    C92    C56       1.40465      .   S
    C89    C75       1.40479      .   S
    C97    C64       1.40462      .   S
    C91    C55       1.40463      .   S
    C95    C65       1.40459      .   S
    C85    C49       1.40352      .   S
    C84    C48       1.40455      .   S
    C87    C76       1.40459      .   S
    N122   Cu2       1.99992  1_545   S
    N122   N110      1.36087      .   S
    N115   Cu6       1.99889  1_455   S
    N115   N118      1.36080      .   S
    Cu6    N113      1.99912      .   S
    Cu6    N132      2.00054      .   S
    Cu6    N134      1.99966  1_655   S
    N113   N119      1.36082      .   S
    Cu2    N107      2.00098      .   S
    Cu2    N124      2.00031      .   S
    Cu2    N105      2.00092  1_565   S
    N107   N129      1.36493      .   S
    N124   N109      1.36627      .   S
    N132   N103      1.36083      .   S
    N134   N102      1.36083      .   S
    N105   N130      1.36612      .   S
    C75    N129      1.34878      .   S
    C75    H39       1.08297      .   S
    C49    N103      1.34913      .   S
    C49    H12       1.08355      .   S
    C76    N130      1.34851      .   S
    C76    H40       1.08255      .   S
    C48    N102      1.34885      .   S
    C48    H11       1.08285      .   S
    C56    N110      1.34894      .   S
    C56    H19       1.08290      .   S
    C55    N109      1.34865      .   S
    C55    H18       1.08294      .   S
    C65    N119      1.34900      .   S
    C65    H29       1.08275      .   S
    C64    N118      1.34897      .   S
    C64    H28       1.08268      .   S
    N129   Cu5       1.99948  1_565   S
    N103   Cu0       1.99854  1_655   S
    N110   Cu5       2.00068      .   S
    N102   Cu26      1.99870  1_455   S
    N119   Cu26      2.00047      .   S
    N118   Cu0       1.99963      .   S
    N109   Cu4       2.00058      .   S
    N130   Cu4       1.99979  1_545   S
    Cu5    N112      2.00049  1_545   S
    Cu5    N127      2.00001      .   S
    Cu0    N120      2.00092  1_455   S
    Cu0    N101      1.99980      .   S
    Cu26   N121      2.00040  1_655   S
    Cu26   N100      1.99935      .   S
    Cu4    N111      2.00052  1_565   S
    Cu4    N128      1.99961      .   S
    H30    C66       1.08265      .   S
    H31    C67       1.08347      .   S
    H21    C58       1.08287      .   S
    H20    C57       1.08294      .   S
    H9     C46       1.08196      .   S
    H38    C74       1.08299      .   S
    H10    C47       1.08289      .   S
    H37    C73       1.08301      .   S
    N112   C58       1.34862      .   S
    N112   N123      1.36612      .   S
    N120   C66       1.34898      .   S
    N120   N116      1.36080      .   S
    N121   C67       1.34899      .   S
    N121   N114      1.36089      .   S
    N127   C73       1.34851      .   S
    N127   N106      1.36632      .   S
    N100   C46       1.34854      .   S
    N100   N133      1.36082      .   S
    N101   C47       1.34885      .   S
    N101   N131      1.36093      .   S
    N111   C57       1.34887      .   S
    N111   N125      1.36099      .   S
    N128   C74       1.34881      .   S
    N128   N104      1.36107      .   S
    C66    C98       1.40465      .   S
    C58    C94       1.40467      .   S
    C67    C96       1.40468      .   S
    C46    C82       1.40586      .   S
    C47    C83       1.39541      .   S
    C57    C93       1.40486      .   S
    C74    C86       1.40483      .   S
    C73    C88       1.40465      .   S
    N106   Cu1       2.00127      .   S
    N106   C52       1.34874      .   S
    N131   Cu7       2.00014      .   S
    N131   C77       1.34904      .   S
    N133   Cu7       2.00017  1_655   S
    N133   C79       1.34889      .   S
    N104   Cu1       2.00043  1_565   S
    N104   C50       1.34880      .   S
    N123   Cu1       2.00006  1_565   S
    N123   C69       1.34791      .   S
    Cu1    N125      2.00033      .   S
    Cu7    N116      1.99861  1_455   S
    Cu7    N114      1.99915      .   S
    N125   C71       1.34880      .   S
    N116   C62       1.34874      .   S
    N114   C60       1.34885      .   S
    C83    C77       1.40772      .   S
    C94    C69       1.40419      .   S
    C98    C62       1.40467      .   S
    C88    C52       1.40446      .   S
    C96    C60       1.40466      .   S
    C82    C79       1.40461      .   S
    C86    C50       1.40462      .   S
    C93    C71       1.40463      .   S
    C52    H15       1.08277      .   S
    C77    H41       1.08267      .   S
    C79    H43       1.08281      .   S
    C69    H33       1.07634      .   S
    C50    H13       1.08277      .   S
    C71    H35       1.08290      .   S
    C60    H23       1.08199      .   S
    C62    H25       1.08282      .   S
    C90    C81       1.40475      .   S
    C90    C54       1.40500      .   S
    H45    C81       1.08274      .   S
    H17    C54       1.08292      .   S
    C81    N135      1.34890      .   S
    C54    N108      1.34875      .   S
    N135   N108      1.36098      .   S
    N135   Cu8       2.00008      .   S
    N108   Cu3       2.00039      .   S
