# CIF file generated by openbabel 2.4.90, see http://openbabel.sf.net
data_I
_chemical_name_common ''
_cell_length_a 18.923
_cell_length_b 18.949
_cell_length_c 18.947
_cell_angle_alpha 90
_cell_angle_beta 89.998
_cell_angle_gamma 89.999
_space_group_name_H-M_alt 'P 1'
_space_group_name_Hall 'P 1'
loop_
    _symmetry_equiv_pos_as_xyz
    x,y,z
loop_
    _atom_site_label
    _atom_site_type_symbol
    _atom_site_fract_x
    _atom_site_fract_y
    _atom_site_fract_z
    _atom_site_occupancy
    N0      N    0.67673   0.67677   0.21215   1.000
    N1      N    0.32334   0.67679   0.78779   1.000
    N2      N    0.28484   0.28482   0.28466   1.000
    N3      N    0.28487   0.28481   0.71520   1.000
    N4      N    0.32303   0.67680   0.21204   1.000
    N5      N    0.67672   0.67670   0.78789   1.000
    N6      N    0.67692   0.32321   0.78794   1.000
    N7      N    0.67664   0.32325   0.21221   1.000
    Zr8     Zr   0.49998   0.00000   0.49999   1.000
    O9      O    0.58623   0.87097   0.38595   1.000
    O10     O    0.58616   0.12906   0.38602   1.000
    O11     O    0.58636   0.12899   0.61410   1.000
    O12     O    0.58625   0.87096   0.61408   1.000
    O13     O    0.40411   0.11942   0.40404   1.000
    O14     O    0.41380   0.87097   0.61399   1.000
    O15     O    0.40415   0.11943   0.59586   1.000
    O16     O    0.41361   0.87101   0.38589   1.000
    Zr17    Zr   0.38057   0.38069   0.99999   1.000
    O18     O    0.49397   0.36443   0.06219   1.000
    O19     O    0.49406   0.36440   0.93785   1.000
    O20     O    0.34443   0.34447   0.88058   1.000
    O21     O    0.34444   0.34450   0.11937   1.000
    O22     O    0.36417   0.49409   0.06211   1.000
    O23     O    0.36432   0.49405   0.93777   1.000
    Zr24    Zr   0.99999   0.50001   0.49999   1.000
    O25     O    0.12897   0.58624   0.38595   1.000
    O26     O    0.11946   0.40416   0.59576   1.000
    O27     O    0.11944   0.40417   0.40408   1.000
    O28     O    0.87093   0.58625   0.38598   1.000
    O29     O    0.87089   0.41374   0.38599   1.000
    O30     O    0.87092   0.58622   0.61404   1.000
    O31     O    0.87100   0.41378   0.61403   1.000
    O32     O    0.12908   0.58628   0.61400   1.000
loop_
    _geom_bond_atom_site_label_1
    _geom_bond_atom_site_label_2
    _geom_bond_distance
    _geom_bond_site_symmetry_2
    _ccdc_geom_bond_type
    Zr8    O9        3.64825  1_545   S
    N0     O9        5.22668      .   S
    Zr8    O10       3.64718      .   S
    N7     O10       5.22653      .   S
    Zr8    O11       3.64982      .   S
    N6     O11       5.22772      .   S
    Zr8    O12       3.64923  1_545   S
    N5     O12       5.22741      .   S
    Zr8    O13       3.42294      .   S
    N2     O13       4.47587      .   S
    Zr8    O14       3.64730  1_545   S
    N1     O14       5.22625      .   S
    Zr8    O15       3.42186      .   S
    N3     O15       4.47514      .   S
    Zr8    O16       3.64968  1_545   S
    N4     O16       5.22785      .   S
    Zr17   O18       2.46751  1_556   S
    N7     O18       4.54299      .   S
    Zr17   O19       2.46858      .   S
    N6     O19       4.54412      .   S
    Zr17   O20       2.46120      .   S
    N3     O20       3.51667      .   S
    Zr17   O21       2.46036  1_556   S
    N2     O21       3.51559      .   S
    Zr17   O22       2.46966  1_556   S
    N4     O22       4.54556      .   S
    Zr17   O23       2.46955      .   S
    N1     O23       4.54601      .   S
    Zr24   O25       3.64625  1_655   S
    N4     O25       5.22372      .   S
    Zr24   O26       3.42096  1_655   S
    N3     O26       4.47590      .   S
    Zr24   O27       3.42189  1_655   S
    N2     O27       4.47528      .   S
    Zr24   O28       3.64705      .   S
    N0     O28       5.22434      .   S
    Zr24   O29       3.64764      .   S
    N7     O29       5.22436      .   S
    Zr24   O30       3.64732      .   S
    N5     O30       5.22435      .   S
    Zr24   O31       3.64644      .   S
    N6     O31       5.22395      .   S
    Zr24   O32       3.64788  1_655   S
    N1     O32       5.22479      .   S
