# CIF file generated by openbabel 2.4.90, see http://openbabel.sf.net
data_I
_chemical_name_common ''
_cell_length_a 18.923
_cell_length_b 18.949
_cell_length_c 18.947
_cell_angle_alpha 90
_cell_angle_beta 89.998
_cell_angle_gamma 89.999
_space_group_name_H-M_alt 'P 1'
_space_group_name_Hall 'P 1'
loop_
    _symmetry_equiv_pos_as_xyz
    x,y,z
loop_
    _atom_site_label
    _atom_site_type_symbol
    _atom_site_fract_x
    _atom_site_fract_y
    _atom_site_fract_z
    _atom_site_occupancy
    Zr0     Zr   0.99998   0.62706   0.50005   1.000
    Zr1     Zr   0.00001   0.37295   0.49990   1.000
    Zr2     Zr   0.50014   0.00005   0.62702   1.000
    Zr3     Zr   0.49983   0.99994   0.37298   1.000
    Zr4     Zr   0.62739   0.49997   0.50000   1.000
    Zr5     Zr   0.37258   0.50003   0.99995   1.000
    Zr6     Zr   0.62795   0.99997   0.50015   1.000
    Zr7     Zr   0.37201   0.00002   0.49985   1.000
    Zr8     Zr   0.99992   0.49995   0.37293   1.000
    Zr9     Zr   0.00006   0.50006   0.62709   1.000
    Zr10    Zr   0.49996   0.62701   0.30000   1.000
    Zr11    Zr   0.50002   0.37300   0.99995   1.000
    Zr12    Zr   0.86463   0.71769   0.55663   1.000
    Zr13    Zr   0.13493   0.28196   0.55685   1.000
    Zr14    Zr   0.13529   0.71757   0.44353   1.000
    Zr15    Zr   0.86515   0.28175   0.44300   1.000
    Zr16    Zr   0.55592   0.86441   0.71710   1.000
    Zr17    Zr   0.55537   0.13611   0.28355   1.000
    Zr18    Zr   0.44458   0.13626   0.71642   1.000
    Zr19    Zr   0.44431   0.86389   0.28337   1.000
    Zr20    Zr   0.28186   0.44320   0.86481   1.000
    Zr21    Zr   0.71758   0.86404   0.44375   1.000
    Zr22    Zr   0.28280   0.13638   0.44406   1.000
    Zr23    Zr   0.71793   0.13563   0.55649   1.000
    Zr24    Zr   0.28287   0.86365   0.55583   1.000
    Zr25    Zr   0.86476   0.55663   0.28221   1.000
    Zr26    Zr   0.13525   0.55674   0.71780   1.000
    Zr27    Zr   0.13479   0.44309   0.28170   1.000
    Zr28    Zr   0.86519   0.44319   0.71810   1.000
    Zr29    Zr   0.44352   0.28234   0.13495   1.000
    Zr30    Zr   0.13655   0.28355   0.44448   1.000
    Zr31    Zr   0.86386   0.71684   0.44425   1.000
    Zr32    Zr   0.86346   0.28371   0.55534   1.000
    Zr33    Zr   0.13605   0.71700   0.55580   1.000
    Zr34    Zr   0.44307   0.13456   0.28185   1.000
    Zr35    Zr   0.44364   0.86490   0.71700   1.000
    Zr36    Zr   0.55630   0.86470   0.28260   1.000
    Zr37    Zr   0.55657   0.13515   0.71763   1.000
    Zr38    Zr   0.28289   0.44417   0.13610   1.000
    Zr39    Zr   0.28148   0.13508   0.55710   1.000
    Zr40    Zr   0.71813   0.86455   0.55681   1.000
    Zr41    Zr   0.28115   0.86525   0.44267   1.000
    Zr42    Zr   0.71800   0.13547   0.44330   1.000
    Zr43    Zr   0.13646   0.44453   0.71652   1.000
    Zr44    Zr   0.86344   0.44445   0.28347   1.000
    Zr45    Zr   0.86394   0.55576   0.71696   1.000
    Zr46    Zr   0.13602   0.55566   0.28316   1.000
    Zr47    Zr   0.44423   0.28311   0.86416   1.000
    Zr48    Zr   0.87400   0.67261   0.59040   1.000
    Zr49    Zr   0.12579   0.32722   0.59053   1.000
    Zr50    Zr   0.12592   0.67251   0.40965   1.000
    Zr51    Zr   0.87424   0.32705   0.40930   1.000
    Zr52    Zr   0.59027   0.87399   0.67241   1.000
    Zr53    Zr   0.58982   0.12632   0.32811   1.000
    Zr54    Zr   0.41005   0.12636   0.67194   1.000
    Zr55    Zr   0.40973   0.87377   0.32780   1.000
    Zr56    Zr   0.32708   0.40943   0.87415   1.000
    Zr57    Zr   0.67263   0.87378   0.40974   1.000
    Zr58    Zr   0.32744   0.12639   0.40973   1.000
    Zr59    Zr   0.67298   0.12601   0.59053   1.000
    Zr60    Zr   0.32764   0.87359   0.59001   1.000
    Zr61    Zr   0.87407   0.59044   0.32734   1.000
    Zr62    Zr   0.12594   0.59055   0.67273   1.000
    Zr63    Zr   0.12570   0.40944   0.32707   1.000
    Zr64    Zr   0.87430   0.40953   0.67282   1.000
    Zr65    Zr   0.40957   0.32741   0.12570   1.000
    Zr66    Zr   0.12654   0.32802   0.41002   1.000
    Zr67    Zr   0.87364   0.67219   0.40996   1.000
    Zr68    Zr   0.87348   0.32814   0.58984   1.000
    Zr69    Zr   0.12631   0.67232   0.59013   1.000
    Zr70    Zr   0.40922   0.12550   0.32704   1.000
    Zr71    Zr   0.40967   0.87421   0.67240   1.000
    Zr72    Zr   0.59036   0.87412   0.32755   1.000
    Zr73    Zr   0.59067   0.12577   0.67270   1.000
    Zr74    Zr   0.32764   0.40994   0.12627   1.000
    Zr75    Zr   0.32688   0.12581   0.59064   1.000
    Zr76    Zr   0.67298   0.87403   0.59064   1.000
    Zr77    Zr   0.32655   0.87440   0.40910   1.000
    Zr78    Zr   0.67276   0.12603   0.40964   1.000
    Zr79    Zr   0.12652   0.41010   0.67201   1.000
    Zr80    Zr   0.87343   0.41000   0.32796   1.000
    Zr81    Zr   0.87366   0.59003   0.67227   1.000
    Zr82    Zr   0.12627   0.58995   0.32783   1.000
    Zr83    Zr   0.40987   0.32776   0.87385   1.000
    Zr84    Zr   0.83784   0.65162   0.65173   1.000
    Zr85    Zr   0.16216   0.34837   0.65100   1.000
    Zr86    Zr   0.16208   0.65153   0.34840   1.000
    Zr87    Zr   0.83781   0.34825   0.34836   1.000
    Zr88    Zr   0.65184   0.83801   0.65191   1.000
    Zr89    Zr   0.65152   0.16213   0.34847   1.000
    Zr90    Zr   0.34823   0.16204   0.65170   1.000
    Zr91    Zr   0.34791   0.83809   0.34808   1.000
    Zr92    Zr   0.34821   0.34823   0.83800   1.000
    Zr93    Zr   0.65176   0.83799   0.34826   1.000
    Zr94    Zr   0.34809   0.16195   0.34804   1.000
    Zr95    Zr   0.65209   0.16187   0.65198   1.000
    Zr96    Zr   0.34841   0.83792   0.65160   1.000
    Zr97    Zr   0.83785   0.65164   0.34835   1.000
    Zr98    Zr   0.16212   0.65177   0.65173   1.000
    Zr99    Zr   0.16210   0.34839   0.34822   1.000
    Zr100   Zr   0.83791   0.34849   0.65164   1.000
    Zr101   Zr   0.34833   0.34835   0.16199   1.000
    Zr102   Zr   0.92687   0.62704   0.57624   1.000
    Zr103   Zr   0.07298   0.37285   0.57625   1.000
    Zr104   Zr   0.07308   0.62691   0.42391   1.000
    Zr105   Zr   0.92705   0.37268   0.42364   1.000
    Zr106   Zr   0.57639   0.92692   0.62688   1.000
    Zr107   Zr   0.57583   0.07335   0.37356   1.000
    Zr108   Zr   0.42402   0.07337   0.62651   1.000
    Zr109   Zr   0.42360   0.92676   0.37300   1.000
    Zr110   Zr   0.37264   0.42372   0.92700   1.000
    Zr111   Zr   0.62728   0.92678   0.42405   1.000
    Zr112   Zr   0.37275   0.07325   0.42379   1.000
    Zr113   Zr   0.62754   0.07302   0.57638   1.000
    Zr114   Zr   0.37296   0.92663   0.57574   1.000
    Zr115   Zr   0.92691   0.57620   0.37294   1.000
    Zr116   Zr   0.07305   0.57634   0.62717   1.000
    Zr117   Zr   0.07292   0.42370   0.37273   1.000
    Zr118   Zr   0.92706   0.42384   0.62714   1.000
    Zr119   Zr   0.42371   0.37303   0.07292   1.000
    Zr120   Zr   0.07347   0.37344   0.42403   1.000
    Zr121   Zr   0.92664   0.62670   0.42401   1.000
    Zr122   Zr   0.92652   0.37360   0.57583   1.000
    Zr123   Zr   0.07330   0.62684   0.57610   1.000
    Zr124   Zr   0.42330   0.07273   0.37270   1.000
    Zr125   Zr   0.42385   0.92701   0.62688   1.000
    Zr126   Zr   0.57621   0.92697   0.37307   1.000
    Zr127   Zr   0.57665   0.07290   0.62714   1.000
    Zr128   Zr   0.37308   0.42403   0.07325   1.000
    Zr129   Zr   0.37238   0.07299   0.57612   1.000
    Zr130   Zr   0.62754   0.92699   0.57638   1.000
    Zr131   Zr   0.37211   0.92723   0.42345   1.000
    Zr132   Zr   0.62733   0.07314   0.42409   1.000
    Zr133   Zr   0.07347   0.42411   0.62656   1.000
    Zr134   Zr   0.92652   0.42397   0.37337   1.000
    Zr135   Zr   0.92666   0.57601   0.62677   1.000
    Zr136   Zr   0.07332   0.57587   0.37338   1.000
    Zr137   Zr   0.42384   0.37328   0.92678   1.000
    O138    O    0.39840   0.39853   0.07308   1.000
    O139    O    0.41664   0.35022   0.09931   1.000
    O140    O    0.46187   0.37301   0.03644   1.000
    O141    O    0.35036   0.41698   0.09976   1.000
    O142    O    0.37283   0.46203   0.03660   1.000
    O143    O    0.42655   0.30488   0.13032   1.000
    O144    O    0.37895   0.33788   0.14385   1.000
    O145    O    0.30526   0.42705   0.13118   1.000
    O146    O    0.33798   0.37914   0.14413   1.000
    O147    O    0.13024   0.42626   0.30439   1.000
    O148    O    0.42615   0.13003   0.30445   1.000
    O149    O    0.86942   0.57353   0.30478   1.000
    O150    O    0.57333   0.86941   0.30507   1.000
    O151    O    0.13114   0.57281   0.30550   1.000
    O152    O    0.42702   0.86883   0.30558   1.000
    O153    O    0.86844   0.42722   0.30571   1.000
    O154    O    0.57259   0.13122   0.30583   1.000
    O155    O    0.37866   0.14373   0.33754   1.000
    O156    O    0.41626   0.09912   0.34987   1.000
    O157    O    0.14390   0.37891   0.33765   1.000
    O158    O    0.09931   0.41657   0.34990   1.000
    O159    O    0.85596   0.62104   0.33785   1.000
    O160    O    0.90049   0.58332   0.35014   1.000
    O161    O    0.62106   0.85605   0.33791   1.000
    O162    O    0.58329   0.90054   0.35031   1.000
    O163    O    0.37882   0.85593   0.33794   1.000
    O164    O    0.41667   0.90026   0.35040   1.000
    O165    O    0.14417   0.62074   0.33811   1.000
    O166    O    0.09980   0.58291   0.35060   1.000
    O167    O    0.85562   0.37912   0.33816   1.000
    O168    O    0.89998   0.41699   0.35067   1.000
    O169    O    0.62067   0.14423   0.33829   1.000
    O170    O    0.58283   0.09984   0.35084   1.000
    O171    O    0.33777   0.14417   0.37888   1.000
    O172    O    0.33723   0.85625   0.37859   1.000
    O173    O    0.14432   0.33820   0.37912   1.000
    O174    O    0.66220   0.85589   0.37900   1.000
    O175    O    0.85574   0.66191   0.37915   1.000
    O176    O    0.85603   0.33765   0.37883   1.000
    O177    O    0.14400   0.66202   0.37903   1.000
    O178    O    0.66214   0.14408   0.37906   1.000
    O179    O    0.46156   0.03634   0.37284   1.000
    O180    O    0.39802   0.07299   0.39824   1.000
    O181    O    0.03642   0.46183   0.37283   1.000
    O182    O    0.07319   0.39857   0.39838   1.000
    O183    O    0.96342   0.53808   0.37294   1.000
    O184    O    0.96322   0.46196   0.37315   1.000
    O185    O    0.03662   0.53791   0.37315   1.000
    O186    O    0.92678   0.60145   0.39848   1.000
    O187    O    0.46171   0.96335   0.37299   1.000
    O188    O    0.53802   0.96346   0.37302   1.000
    O189    O    0.53783   0.03665   0.37327   1.000
    O190    O    0.39786   0.92699   0.39822   1.000
    O191    O    0.60174   0.92688   0.39856   1.000
    O192    O    0.92679   0.39833   0.39850   1.000
    O193    O    0.07320   0.60139   0.39864   1.000
    O194    O    0.60158   0.07324   0.39882   1.000
    O195    O    0.34933   0.90082   0.41628   1.000
    O196    O    0.30385   0.86982   0.42589   1.000
    O197    O    0.90065   0.34987   0.41647   1.000
    O198    O    0.86970   0.30440   0.42615   1.000
    O199    O    0.65004   0.09958   0.41687   1.000
    O200    O    0.69538   0.13075   0.42647   1.000
    O201    O    0.09950   0.64971   0.41678   1.000
    O202    O    0.13061   0.69504   0.42659   1.000
    O203    O    0.35010   0.09982   0.41676   1.000
    O204    O    0.30512   0.13138   0.42689   1.000
    O205    O    0.64996   0.90028   0.41689   1.000
    O206    O    0.69511   0.86891   0.42674   1.000
    O207    O    0.90014   0.64944   0.41699   1.000
    O208    O    0.86875   0.69451   0.42710   1.000
    O209    O    0.10000   0.35073   0.41702   1.000
    O210    O    0.13154   0.30578   0.42725   1.000
    O211    O    0.37206   0.96362   0.46165   1.000
    O212    O    0.96353   0.37282   0.46177   1.000
    O213    O    0.37238   0.03664   0.46182   1.000
    O214    O    0.03653   0.62698   0.46198   1.000
    O215    O    0.96331   0.62688   0.46203   1.000
    O216    O    0.03674   0.37320   0.46197   1.000
    O217    O    0.62761   0.96338   0.46210   1.000
    O218    O    0.62764   0.03655   0.46212   1.000
    O219    O    0.37249   0.96332   0.53780   1.000
    O220    O    0.37219   0.03650   0.53798   1.000
    O221    O    0.96327   0.37327   0.53787   1.000
    O222    O    0.03650   0.37290   0.53807   1.000
    O223    O    0.03664   0.62695   0.53807   1.000
    O224    O    0.96343   0.62705   0.53814   1.000
    O225    O    0.62775   0.03649   0.53826   1.000
    O226    O    0.62775   0.96348   0.53826   1.000
    O227    O    0.86847   0.30592   0.57259   1.000
    O228    O    0.13118   0.69466   0.57297   1.000
    O229    O    0.30525   0.86862   0.57292   1.000
    O230    O    0.69545   0.13082   0.57351   1.000
    O231    O    0.86931   0.69515   0.57352   1.000
    O232    O    0.69555   0.86929   0.57373   1.000
    O233    O    0.13036   0.30459   0.57369   1.000
    O234    O    0.30418   0.13044   0.57387   1.000
    O235    O    0.35030   0.90011   0.58288   1.000
    O236    O    0.39840   0.92682   0.60131   1.000
    O237    O    0.90000   0.35087   0.58283   1.000
    O238    O    0.92679   0.39872   0.60148   1.000
    O239    O    0.09981   0.64958   0.58312   1.000
    O240    O    0.07317   0.60159   0.60163   1.000
    O241    O    0.34963   0.09940   0.58338   1.000
    O242    O    0.39820   0.07318   0.60131   1.000
    O243    O    0.90044   0.64983   0.58332   1.000
    O244    O    0.92677   0.60153   0.60150   1.000
    O245    O    0.09938   0.35003   0.58339   1.000
    O246    O    0.07322   0.39848   0.60140   1.000
    O247    O    0.65026   0.09951   0.58345   1.000
    O248    O    0.60210   0.07296   0.60176   1.000
    O249    O    0.65026   0.90051   0.58351   1.000
    O250    O    0.60196   0.92695   0.60163   1.000
    O251    O    0.85570   0.33832   0.62074   1.000
    O252    O    0.33802   0.85575   0.62080   1.000
    O253    O    0.14422   0.66205   0.62093   1.000
    O254    O    0.85592   0.66211   0.62106   1.000
    O255    O    0.14397   0.33779   0.62077   1.000
    O256    O    0.66253   0.14394   0.62126   1.000
    O257    O    0.66241   0.85602   0.62128   1.000
    O258    O    0.33756   0.14392   0.62117   1.000
    O259    O    0.46208   0.03671   0.62677   1.000
    O260    O    0.41704   0.09986   0.64922   1.000
    O261    O    0.03676   0.46208   0.62682   1.000
    O262    O    0.09999   0.41711   0.64929   1.000
    O263    O    0.96336   0.53803   0.62693   1.000
    O264    O    0.90016   0.58302   0.64952   1.000
    O265    O    0.53827   0.96348   0.62695   1.000
    O266    O    0.58333   0.90045   0.64965   1.000
    O267    O    0.46200   0.96353   0.62695   1.000
    O268    O    0.41676   0.90061   0.64964   1.000
    O269    O    0.53840   0.03647   0.62708   1.000
    O270    O    0.96356   0.46195   0.62712   1.000
    O271    O    0.03656   0.53820   0.62713   1.000
    O272    O    0.58366   0.09933   0.64992   1.000
    O273    O    0.90068   0.41669   0.64998   1.000
    O274    O    0.09949   0.58344   0.64995   1.000
    O275    O    0.14434   0.37924   0.66151   1.000
    O276    O    0.37904   0.85606   0.66200   1.000
    O277    O    0.85610   0.37901   0.66223   1.000
    O278    O    0.37914   0.14420   0.66182   1.000
    O279    O    0.14403   0.62116   0.66223   1.000
    O280    O    0.85575   0.62083   0.66200   1.000
    O281    O    0.62106   0.85600   0.66216   1.000
    O282    O    0.62138   0.14382   0.66234   1.000
    O283    O    0.42731   0.13131   0.69418   1.000
    O284    O    0.13149   0.42732   0.69427   1.000
    O285    O    0.86880   0.57290   0.69461   1.000
    O286    O    0.42665   0.86955   0.69470   1.000
    O287    O    0.57310   0.86920   0.69475   1.000
    O288    O    0.57362   0.13046   0.69517   1.000
    O289    O    0.13060   0.57364   0.69527   1.000
    O290    O    0.86974   0.42636   0.69546   1.000
    O291    O    0.37904   0.33799   0.85593   1.000
    O292    O    0.33765   0.37883   0.85608   1.000
    O293    O    0.42705   0.30544   0.86901   1.000
    O294    O    0.30447   0.42632   0.86948   1.000
    O295    O    0.41686   0.35052   0.90031   1.000
    O296    O    0.34986   0.41658   0.90058   1.000
    O297    O    0.39824   0.39850   0.92689   1.000
    O298    O    0.46193   0.37314   0.96337   1.000
    O299    O    0.37261   0.46187   0.96347   1.000
    N300    N    0.67673   0.67677   0.21215   1.000
    O301    O    0.67248   0.74194   0.27192   1.000
    O302    O    0.74187   0.67248   0.27197   1.000
    N303    N    0.32334   0.67679   0.78779   1.000
    O304    O    0.32762   0.74194   0.72798   1.000
    O305    O    0.25817   0.67255   0.72802   1.000
    O306    O    0.34807   0.60742   0.87555   1.000
    N307    N    0.28484   0.28482   0.28466   1.000
    O308    O    0.30832   0.30830   0.23874   1.000
    O309    O    0.30824   0.23883   0.30809   1.000
    O310    O    0.23889   0.30833   0.30816   1.000
    N311    N    0.28487   0.28481   0.71520   1.000
    O312    O    0.30831   0.23885   0.69173   1.000
    O313    O    0.23894   0.30831   0.69154   1.000
    O314    O    0.30830   0.30825   0.76117   1.000
    N315    N    0.32303   0.67680   0.21204   1.000
    O316    O    0.32724   0.74201   0.27179   1.000
    O317    O    0.25795   0.67247   0.27191   1.000
    O318    O    0.34778   0.60750   0.12423   1.000
    N319    N    0.67672   0.67670   0.78789   1.000
    O320    O    0.67251   0.74192   0.72817   1.000
    O321    O    0.74186   0.67243   0.72809   1.000
    N322    N    0.67692   0.32321   0.78794   1.000
    O323    O    0.67273   0.25799   0.72821   1.000
    O324    O    0.74201   0.32755   0.72808   1.000
    O325    O    0.60756   0.34811   0.87570   1.000
    N326    N    0.67664   0.32325   0.21221   1.000
    O327    O    0.67233   0.25811   0.27205   1.000
    O328    O    0.74179   0.32748   0.27200   1.000
    O329    O    0.60737   0.34817   0.12438   1.000
loop_
    _geom_bond_atom_site_label_1
    _geom_bond_atom_site_label_2
    _geom_bond_distance
    _geom_bond_site_symmetry_2
    _ccdc_geom_bond_type
    Zr119  O138      0.68047      .   S
    Zr128  O138      0.68047      .   S
    Zr119  O139      0.67434      .   S
    Zr65   O139      0.67434      .   S
    Zr119  O140      0.99956      .   S
    Zr11   O140      0.99956  1_556   S
    Zr128  O141      0.67451      .   S
    Zr74   O141      0.67451      .   S
    Zr128  O142      1.00034      .   S
    Zr5    O142      1.00034  1_556   S
    Zr65   O143      0.54141      .   S
    Zr29   O143      0.54141      .   S
    Zr65   O144      0.70234      .   S
    Zr101  O144      0.70234      .   S
    Zr74   O145      0.54140      .   S
    Zr38   O145      0.54140      .   S
    Zr74   O146      0.70239      .   S
    Zr101  O146      0.70239      .   S
    Zr27   O147      0.54201      .   S
    Zr63   O147      0.54201      .   S
    Zr34   O148      0.54147      .   S
    Zr70   O148      0.54147      .   S
    Zr25   O149      0.54146      .   S
    Zr61   O149      0.54146      .   S
    Zr36   O150      0.54142      .   S
    Zr72   O150      0.54142      .   S
    Zr46   O151      0.54138      .   S
    Zr82   O151      0.54138      .   S
    Zr19   O152      0.54123      .   S
    Zr55   O152      0.54123      .   S
    Zr44   O153      0.54137      .   S
    Zr80   O153      0.54137      .   S
    Zr17   O154      0.54138      .   S
    Zr53   O154      0.54138      .   S
    Zr70   O155      0.70236      .   S
    Zr94   O155      0.70236      .   S
    Zr70   O156      0.67440      .   S
    Zr124  O156      0.67440      .   S
    Zr63   O157      0.70234      .   S
    Zr99   O157      0.70234      .   S
    Zr63   O158      0.67437      .   S
    Zr117  O158      0.67437      .   S
    Zr61   O159      0.70231      .   S
    Zr97   O159      0.70231      .   S
    Zr61   O160      0.67440      .   S
    Zr115  O160      0.67440      .   S
    Zr72   O161      0.70222      .   S
    Zr93   O161      0.70222      .   S
    Zr72   O162      0.67427      .   S
    Zr126  O162      0.67427      .   S
    Zr55   O163      0.70236      .   S
    Zr91   O163      0.70236      .   S
    Zr55   O164      0.67277      .   S
    Zr109  O164      0.67277      .   S
    Zr82   O165      0.70232      .   S
    Zr86   O165      0.70232      .   S
    Zr82   O166      0.67449      .   S
    Zr136  O166      0.67449      .   S
    Zr80   O167      0.70229      .   S
    Zr87   O167      0.70229      .   S
    Zr80   O168      0.67452      .   S
    Zr134  O168      0.67452      .   S
    Zr53   O169      0.70222      .   S
    Zr89   O169      0.70222      .   S
    Zr53   O170      0.67434      .   S
    Zr107  O170      0.67434      .   S
    Zr94   O171      0.70232      .   S
    Zr58   O171      0.70232      .   S
    Zr91   O172      0.70239      .   S
    Zr77   O172      0.70239      .   S
    Zr99   O173      0.70231      .   S
    Zr66   O173      0.70231      .   S
    Zr93   O174      0.70231      .   S
    Zr57   O174      0.70231      .   S
    Zr97   O175      0.70229      .   S
    Zr67   O175      0.70229      .   S
    Zr87   O176      0.70176      .   S
    Zr51   O176      0.70176      .   S
    Zr86   O177      0.70228      .   S
    Zr50   O177      0.70228      .   S
    Zr89   O178      0.70230      .   S
    Zr78   O178      0.70230      .   S
    Zr124  O179      0.99996      .   S
    Zr3    O179      0.99996  1_565   S
    Zr124  O180      0.68043      .   S
    Zr112  O180      0.68043      .   S
    Zr117  O181      0.99945      .   S
    Zr8    O181      0.99945  1_655   S
    Zr117  O182      0.68040      .   S
    Zr120  O182      0.68040      .   S
    Zr8    O183      0.99956      .   S
    Zr115  O183      0.99956      .   S
    Zr8    O184      1.00027      .   S
    Zr134  O184      1.00027      .   S
    Zr8    O185      0.99983  1_655   S
    Zr136  O185      0.99983      .   S
    Zr115  O186      0.68041      .   S
    Zr121  O186      0.68041      .   S
    Zr3    O187      1.00049      .   S
    Zr109  O187      1.00049      .   S
    Zr3    O188      1.00016      .   S
    Zr126  O188      1.00016      .   S
    Zr3    O189      1.00046  1_565   S
    Zr107  O189      1.00046      .   S
    Zr109  O190      0.68246      .   S
    Zr131  O190      0.68246      .   S
    Zr126  O191      0.68314      .   S
    Zr111  O191      0.68314      .   S
    Zr134  O192      0.68042      .   S
    Zr105  O192      0.68042      .   S
    Zr136  O193      0.68042      .   S
    Zr104  O193      0.68042      .   S
    Zr107  O194      0.68306      .   S
    Zr132  O194      0.68306      .   S
    Zr77   O195      0.67439      .   S
    Zr131  O195      0.67439      .   S
    Zr77   O196      0.54149      .   S
    Zr41   O196      0.54149      .   S
    Zr51   O197      0.67456      .   S
    Zr105  O197      0.67456      .   S
    Zr51   O198      0.54177      .   S
    Zr15   O198      0.54177      .   S
    Zr78   O199      0.67426      .   S
    Zr132  O199      0.67426      .   S
    Zr78   O200      0.54127      .   S
    Zr42   O200      0.54127      .   S
    Zr50   O201      0.67443      .   S
    Zr104  O201      0.67443      .   S
    Zr50   O202      0.54142      .   S
    Zr14   O202      0.54142      .   S
    Zr58   O203      0.67447      .   S
    Zr112  O203      0.67447      .   S
    Zr58   O204      0.54145      .   S
    Zr22   O204      0.54145      .   S
    Zr57   O205      0.67432      .   S
    Zr111  O205      0.67432      .   S
    Zr57   O206      0.54147      .   S
    Zr21   O206      0.54147      .   S
    Zr67   O207      0.67450      .   S
    Zr121  O207      0.67450      .   S
    Zr67   O208      0.54138      .   S
    Zr31   O208      0.54138      .   S
    Zr66   O209      0.67449      .   S
    Zr120  O209      0.67449      .   S
    Zr66   O210      0.54134      .   S
    Zr30   O210      0.54134      .   S
    Zr131  O211      0.99974      .   S
    Zr7    O211      0.99974  1_545   S
    Zr105  O212      0.99927      .   S
    Zr1    O212      0.99927  1_455   S
    Zr112  O213      1.00034      .   S
    Zr7    O213      1.00034      .   S
    Zr104  O214      0.99935      .   S
    Zr0    O214      0.99935  1_655   S
    Zr121  O215      1.00023      .   S
    Zr0    O215      1.00023      .   S
    Zr120  O216      0.99981      .   S
    Zr1    O216      0.99981      .   S
    Zr111  O217      1.00029      .   S
    Zr6    O217      1.00029      .   S
    Zr132  O218      0.99989      .   S
    Zr6    O218      0.99989  1_565   S
    Zr7    O219      1.00024  1_545   S
    Zr114  O219      1.00024      .   S
    Zr7    O220      1.00001      .   S
    Zr129  O220      1.00001      .   S
    Zr1    O221      1.00046  1_455   S
    Zr122  O221      1.00046      .   S
    Zr1    O222      0.99990      .   S
    Zr103  O222      0.99990      .   S
    Zr0    O223      1.00020  1_655   S
    Zr123  O223      1.00020      .   S
    Zr0    O224      0.99968      .   S
    Zr102  O224      0.99968      .   S
    Zr6    O225      1.00026  1_565   S
    Zr113  O225      1.00026      .   S
    Zr6    O226      0.99981      .   S
    Zr130  O226      0.99981      .   S
    Zr32   O227      0.54133      .   S
    Zr68   O227      0.54133      .   S
    Zr33   O228      0.54174      .   S
    Zr69   O228      0.54174      .   S
    Zr24   O229      0.54144      .   S
    Zr60   O229      0.54144      .   S
    Zr23   O230      0.54147      .   S
    Zr59   O230      0.54147      .   S
    Zr12   O231      0.54098      .   S
    Zr48   O231      0.54098      .   S
    Zr40   O232      0.54149      .   S
    Zr76   O232      0.54149      .   S
    Zr13   O233      0.54145      .   S
    Zr49   O233      0.54145      .   S
    Zr39   O234      0.54151      .   S
    Zr75   O234      0.54151      .   S
    Zr114  O235      0.67431      .   S
    Zr60   O235      0.67431      .   S
    Zr114  O236      0.68306      .   S
    Zr125  O236      0.68306      .   S
    Zr122  O237      0.67449      .   S
    Zr68   O237      0.67449      .   S
    Zr122  O238      0.68040      .   S
    Zr118  O238      0.68040      .   S
    Zr123  O239      0.67449      .   S
    Zr69   O239      0.67449      .   S
    Zr123  O240      0.68045      .   S
    Zr116  O240      0.68045      .   S
    Zr129  O241      0.67425      .   S
    Zr75   O241      0.67425      .   S
    Zr129  O242      0.68316      .   S
    Zr108  O242      0.68316      .   S
    Zr102  O243      0.67427      .   S
    Zr48   O243      0.67427      .   S
    Zr102  O244      0.68041      .   S
    Zr135  O244      0.68041      .   S
    Zr103  O245      0.67443      .   S
    Zr49   O245      0.67443      .   S
    Zr103  O246      0.68046      .   S
    Zr133  O246      0.68046      .   S
    Zr113  O247      0.67444      .   S
    Zr59   O247      0.67444      .   S
    Zr113  O248      0.68049      .   S
    Zr127  O248      0.68049      .   S
    Zr130  O249      0.67441      .   S
    Zr76   O249      0.67441      .   S
    Zr130  O250      0.68054      .   S
    Zr106  O250      0.68054      .   S
    Zr68   O251      0.70232      .   S
    Zr100  O251      0.70232      .   S
    Zr60   O252      0.70233      .   S
    Zr96   O252      0.70233      .   S
    Zr69   O253      0.70234      .   S
    Zr98   O253      0.70234      .   S
    Zr48   O254      0.70293      .   S
    Zr84   O254      0.70293      .   S
    Zr49   O255      0.69771      .   S
    Zr85   O255      0.69771      .   S
    Zr59   O256      0.70243      .   S
    Zr95   O256      0.70243      .   S
    Zr76   O257      0.70241      .   S
    Zr88   O257      0.70241      .   S
    Zr75   O258      0.70233      .   S
    Zr90   O258      0.70233      .   S
    Zr108  O259      1.00064      .   S
    Zr2    O259      1.00064      .   S
    Zr108  O260      0.67437      .   S
    Zr54   O260      0.67437      .   S
    Zr133  O261      1.00007      .   S
    Zr9    O261      1.00007      .   S
    Zr133  O262      0.67452      .   S
    Zr79   O262      0.67452      .   S
    Zr135  O263      1.00009      .   S
    Zr9    O263      1.00009  1_455   S
    Zr135  O264      0.67445      .   S
    Zr81   O264      0.67445      .   S
    Zr106  O265      1.00022      .   S
    Zr2    O265      1.00022  1_545   S
    Zr106  O266      0.67440      .   S
    Zr52   O266      0.67440      .   S
    Zr125  O267      1.00003      .   S
    Zr2    O267      1.00003  1_545   S
    Zr125  O268      0.67396      .   S
    Zr71   O268      0.67396      .   S
    Zr2    O269      1.00016      .   S
    Zr127  O269      1.00016      .   S
    Zr9    O270      0.99931  1_455   S
    Zr118  O270      0.99931      .   S
    Zr9    O271      0.99958      .   S
    Zr116  O271      0.99958      .   S
    Zr127  O272      0.67440      .   S
    Zr73   O272      0.67440      .   S
    Zr118  O273      0.67437      .   S
    Zr64   O273      0.67437      .   S
    Zr116  O274      0.67443      .   S
    Zr62   O274      0.67443      .   S
    Zr85   O275      0.70386      .   S
    Zr79   O275      0.70386      .   S
    Zr96   O276      0.70209      .   S
    Zr71   O276      0.70209      .   S
    Zr100  O277      0.70234      .   S
    Zr64   O277      0.70234      .   S
    Zr90   O278      0.70223      .   S
    Zr54   O278      0.70223      .   S
    Zr98   O279      0.70233      .   S
    Zr62   O279      0.70233      .   S
    Zr84   O280      0.70231      .   S
    Zr81   O280      0.70231      .   S
    Zr88   O281      0.70231      .   S
    Zr52   O281      0.70231      .   S
    Zr95   O282      0.70232      .   S
    Zr73   O282      0.70232      .   S
    Zr54   O283      0.54138      .   S
    Zr18   O283      0.54138      .   S
    Zr79   O284      0.54133      .   S
    Zr43   O284      0.54133      .   S
    Zr81   O285      0.54140      .   S
    Zr45   O285      0.54140      .   S
    Zr71   O286      0.53817      .   S
    Zr35   O286      0.53817      .   S
    Zr52   O287      0.54138      .   S
    Zr16   O287      0.54138      .   S
    Zr73   O288      0.54145      .   S
    Zr37   O288      0.54145      .   S
    Zr62   O289      0.54100      .   S
    Zr26   O289      0.54100      .   S
    Zr64   O290      0.54141      .   S
    Zr28   O290      0.54141      .   S
    Zr92   O291      0.70237      .   S
    Zr83   O291      0.70237      .   S
    Zr92   O292      0.70250      .   S
    Zr56   O292      0.70250      .   S
    Zr47   O293      0.54137      .   S
    Zr83   O293      0.54137      .   S
    Zr20   O294      0.54146      .   S
    Zr56   O294      0.54146      .   S
    Zr83   O295      0.67445      .   S
    Zr137  O295      0.67445      .   S
    Zr56   O296      0.67438      .   S
    Zr110  O296      0.67438      .   S
    Zr137  O297      0.68049      .   S
    Zr110  O297      0.68049      .   S
    Zr137  O298      1.00004      .   S
    Zr11   O298      1.00004      .   S
    Zr110  O299      1.00020      .   S
    Zr5    O299      1.00020      .   S
    N300   O301      1.67747      .   S
    Zr93   O301      2.35763      .   S
    N300   O302      1.67645      .   S
    Zr97   O302      2.35565      .   S
    N303   O304      1.67770      .   S
    Zr96   O304      2.35741      .   S
    N303   O305      1.67630      .   S
    Zr98   O305      2.35545      .   S
    N303   O306      2.17069      .   S
    Zr5    O306      3.14816      .   S
    N307   O308      1.07350      .   S
    Zr101  O308      1.80659      .   S
    N307   O309      1.07356      .   S
    Zr94   O309      1.80671      .   S
    N307   O310      1.07355      .   S
    Zr99   O310      1.80661      .   S
    N311   O312      1.07363      .   S
    Zr90   O312      1.80680      .   S
    N311   O313      1.07472      .   S
    Zr85   O313      1.81019      .   S
    N311   O314      1.07348      .   S
    Zr92   O314      1.80654      .   S
    N315   O316      1.67767      .   S
    Zr91   O316      2.35745      .   S
    N315   O317      1.67637      .   S
    Zr86   O317      2.35558      .   S
    N315   O318      2.17072      .   S
    Zr5    O318      3.14826  1_556   S
    N319   O320      1.67740      .   S
    Zr88   O320      2.35723      .   S
    N319   O321      1.67615      .   S
    Zr84   O321      2.35538      .   S
    N322   O323      1.67751      .   S
    Zr95   O323      2.35713      .   S
    N322   O324      1.67635      .   S
    Zr100  O324      2.35536      .   S
    N322   O325      2.17038      .   S
    Zr11   O325      3.14714      .   S
    N326   O327      1.67794      .   S
    Zr89   O327      2.35775      .   S
    N326   O328      1.67614      .   S
    Zr87   O328      2.35580      .   S
    N326   O329      2.17044      .   S
    Zr11   O329      3.14742  1_556   S
