# CIF file generated by openbabel 2.4.90, see http://openbabel.sf.net
data_I
_chemical_name_common ''
_cell_length_a 15.583
_cell_length_b 17.778
_cell_length_c 18.307
_cell_angle_alpha 112.399
_cell_angle_beta 89.999
_cell_angle_gamma 89.946
_space_group_name_H-M_alt 'P 1'
_space_group_name_Hall 'P 1'
loop_
    _symmetry_equiv_pos_as_xyz
    x,y,z
loop_
    _atom_site_label
    _atom_site_type_symbol
    _atom_site_fract_x
    _atom_site_fract_y
    _atom_site_fract_z
    _atom_site_occupancy
    Lv0     Lv   0.75013   0.74842   0.58261   1.000
    Lv1     Lv   0.77080   0.73268   0.24825   1.000
    Lv2     Lv   0.27035   0.76710   0.25160   1.000
    Lv3     Lv   0.75174   0.25195   0.41629   1.000
    Lv4     Lv   0.74839   0.75203   0.91626   1.000
    Lv5     Lv   0.24837   0.74792   0.58377   1.000
    Lv6     Lv   0.25073   0.75203   0.91745   1.000
    Lv7     Lv   0.24997   0.25157   0.41729   1.000
    Lv8     Lv   0.74936   0.24780   0.08259   1.000
    Lv9     Lv   0.23048   0.26761   0.75237   1.000
    Lv10    Lv   0.73035   0.23228   0.74756   1.000
    Lv11    Lv   0.25191   0.24791   0.08317   1.000
