# CIF file generated by openbabel 2.4.90, see http://openbabel.sf.net
data_I
_chemical_name_common ''
_cell_length_a 15.583
_cell_length_b 17.778
_cell_length_c 18.307
_cell_angle_alpha 112.399
_cell_angle_beta 89.999
_cell_angle_gamma 89.946
_space_group_name_H-M_alt 'P 1'
_space_group_name_Hall 'P 1'
loop_
    _symmetry_equiv_pos_as_xyz
    x,y,z
loop_
    _atom_site_label
    _atom_site_type_symbol
    _atom_site_fract_x
    _atom_site_fract_y
    _atom_site_fract_z
    _atom_site_occupancy
    H0      H    0.89342   0.22694   0.12998   1.000
    H1      H    0.70263   0.15980   0.94702   1.000
    H2      H    0.79611   0.33578   0.21817   1.000
    H3      H    0.60533   0.26877   0.03519   1.000
    H4      H    0.82229   0.83937   0.85720   1.000
    H5      H    0.75168   0.79017   0.06165   1.000
    H6      H    0.74448   0.71438   0.77088   1.000
    H7      H    0.67459   0.66461   0.97534   1.000
    H8      H    0.25303   0.71388   0.10563   1.000
    H9      H    0.37493   0.70190   0.31164   1.000
    H10     H    0.16776   0.83399   0.19154   1.000
    H11     H    0.28639   0.81939   0.39760   1.000
    H12     H    0.39296   0.27311   0.36844   1.000
    H13     H    0.20489   0.33839   0.55384   1.000
    H14     H    0.29510   0.16476   0.28079   1.000
    H15     H    0.10697   0.22997   0.46610   1.000
    H16     H    0.32172   0.66010   0.64270   1.000
    H17     H    0.25206   0.71001   0.43840   1.000
    H18     H    0.24405   0.78532   0.72912   1.000
    H19     H    0.17514   0.83585   0.52483   1.000
    H20     H    0.75342   0.78622   0.39421   1.000
    H21     H    0.87552   0.79743   0.18799   1.000
    H22     H    0.66810   0.66624   0.30857   1.000
    H23     H    0.78686   0.68013   0.10224   1.000
    H24     H    0.10678   0.77297   0.86989   1.000
    H25     H    0.29734   0.84005   0.05305   1.000
    H26     H    0.20410   0.66405   0.78183   1.000
    H27     H    0.39462   0.73093   0.96505   1.000
    H28     H    0.17805   0.16119   0.14297   1.000
    H29     H    0.24849   0.20891   0.93769   1.000
    H30     H    0.25596   0.28640   0.22867   1.000
    H31     H    0.32571   0.33469   0.02335   1.000
    H32     H    0.74804   0.28553   0.89348   1.000
    H33     H    0.62569   0.29760   0.68771   1.000
    H34     H    0.83289   0.16520   0.80747   1.000
    H35     H    0.71395   0.17995   0.60159   1.000
    H36     H    0.60721   0.72688   0.63160   1.000
    H37     H    0.79517   0.66148   0.44610   1.000
    H38     H    0.70506   0.83533   0.71909   1.000
    H39     H    0.89305   0.77005   0.53365   1.000
    H40     H    0.67849   0.33947   0.35694   1.000
    H41     H    0.74786   0.29026   0.56171   1.000
    H42     H    0.75625   0.21416   0.27089   1.000
    H43     H    0.82490   0.16434   0.47563   1.000
    H44     H    0.24764   0.21424   0.60650   1.000
    H45     H    0.12559   0.20303   0.81200   1.000
    H46     H    0.33319   0.33398   0.69214   1.000
    H47     H    0.21463   0.32002   0.89853   1.000
    C48     C    0.80396   0.18663   0.03316   1.000
    C49     C    0.83008   0.23626   0.10970   1.000
    C50     C    0.72259   0.19867   0.00641   1.000
    C51     C    0.77608   0.29688   0.15878   1.000
    C52     C    0.66865   0.25936   0.05540   1.000
    C53     C    0.69473   0.30894   0.13204   1.000
    C54     C    0.79266   0.82164   0.96471   1.000
    C55     C    0.79029   0.80069   0.88271   1.000
    C56     C    0.75006   0.77276   0.99792   1.000
    C57     C    0.74659   0.73135   0.83459   1.000
    C58     C    0.70657   0.70331   0.94984   1.000
    C59     C    0.70467   0.68206   0.86778   1.000
    C60     C    0.31936   0.70036   0.20322   1.000
    C61     C    0.26040   0.73757   0.16958   1.000
    C62     C    0.32920   0.73079   0.28560   1.000
    C63     C    0.21225   0.80400   0.21754   1.000
    C64     C    0.27970   0.79607   0.33363   1.000
    C65     C    0.22048   0.83303   0.30000   1.000
    C66     C    0.30491   0.31244   0.46648   1.000
    C67     C    0.33010   0.26350   0.38934   1.000
    C68     C    0.22413   0.30004   0.49400   1.000
    C69     C    0.27580   0.20314   0.34060   1.000
    C70     C    0.16984   0.23963   0.44527   1.000
    C71     C    0.19498   0.19077   0.36808   1.000
    C72     C    0.29256   0.67818   0.53528   1.000
    C73     C    0.28995   0.69898   0.61726   1.000
    C74     C    0.25025   0.72732   0.50214   1.000
    C75     C    0.24636   0.76847   0.66542   1.000
    C76     C    0.20689   0.79693   0.55027   1.000
    C77     C    0.20473   0.81801   0.63229   1.000
    C78     C    0.81985   0.79934   0.29652   1.000
    C79     C    0.76084   0.76234   0.33027   1.000
    C80     C    0.82975   0.76873   0.21413   1.000
    C81     C    0.71263   0.69602   0.28244   1.000
    C82     C    0.78018   0.70356   0.16622   1.000
    C83     C    0.72089   0.66683   0.19994   1.000
    C84     C    0.19612   0.81325   0.96680   1.000
    C85     C    0.17007   0.76361   0.89019   1.000
    C86     C    0.27742   0.80117   0.99364   1.000
    C87     C    0.22408   0.70295   0.84124   1.000
    C88     C    0.33138   0.74042   0.94473   1.000
    C89     C    0.30536   0.69085   0.86807   1.000
    C90     C    0.20755   0.17820   0.03508   1.000
    C91     C    0.21001   0.19961   0.11710   1.000
    C92     C    0.25016   0.22671   0.00146   1.000
    C93     C    0.25379   0.26908   0.16491   1.000
    C94     C    0.29372   0.29628   0.04918   1.000
    C95     C    0.29564   0.31805   0.13130   1.000
    C96     C    0.68164   0.29922   0.79602   1.000
    C97     C    0.74051   0.26182   0.82956   1.000
    C98     C    0.67147   0.26866   0.71366   1.000
    C99     C    0.78841   0.19526   0.78153   1.000
    C100    C    0.72079   0.20326   0.66555   1.000
    C101    C    0.78014   0.16631   0.69904   1.000
    C102    C    0.69519   0.68748   0.53351   1.000
    C103    C    0.67003   0.73650   0.61064   1.000
    C104    C    0.77595   0.69988   0.50593   1.000
    C105    C    0.72434   0.79690   0.65930   1.000
    C106    C    0.83023   0.76036   0.55458   1.000
    C107    C    0.80512   0.80928   0.63175   1.000
    C108    C    0.70747   0.32174   0.46458   1.000
    C109    C    0.71021   0.30072   0.38257   1.000
    C110    C    0.74975   0.27278   0.49795   1.000
    C111    C    0.75386   0.23116   0.33461   1.000
    C112    C    0.79317   0.20312   0.45003   1.000
    C113    C    0.79544   0.18179   0.36798   1.000
    C114    C    0.18136   0.20098   0.70424   1.000
    C115    C    0.24031   0.23804   0.67000   1.000
    C116    C    0.17145   0.23163   0.78663   1.000
    C117    C    0.28867   0.30424   0.71831   1.000
    C118    C    0.22126   0.29665   0.83455   1.000
    C119    C    0.28069   0.33326   0.80083   1.000
loop_
    _geom_bond_atom_site_label_1
    _geom_bond_atom_site_label_2
    _geom_bond_distance
    _geom_bond_site_symmetry_2
    _ccdc_geom_bond_type
    C92    C90       1.40327      .   S
    C92    C94       1.38988      .   S
    C92    H29       1.08728  1_554   S
    C50    C48       1.40448      .   S
    C50    C52       1.39144      .   S
    C50    H1        1.08827  1_554   S
    H31    C94       1.08871      .   S
    C48    C49       1.40218      .   S
    C90    C91       1.40194      .   S
    H3     C52       1.08877      .   S
    C94    C95       1.40265      .   S
    H25    C86       1.08836  1_554   S
    C52    C53       1.40311      .   S
    H5     C56       1.08741  1_554   S
    H23    C82       1.08827      .   S
    H8     C61       1.08880      .   S
    C49    H0        1.08910      .   S
    C49    C51       1.39179      .   S
    C91    H28       1.08909      .   S
    C91    C93       1.39088      .   S
    C95    C93       1.40391      .   S
    C53    C51       1.40431      .   S
    C51    H2        1.08865      .   S
    C93    H30       1.08836      .   S
    C82    C83       1.40332      .   S
    C82    C80       1.39126      .   S
    C61    C60       1.40385      .   S
    C61    C63       1.39155      .   S
    H21    C80       1.08851      .   S
    H10    C63       1.08822      .   S
    C83    C81       1.40339      .   S
    C60    C62       1.40321      .   S
    C80    C78       1.40331      .   S
    C63    C65       1.40287      .   S
    H42    C111      1.08848      .   S
    H14    C69       1.08865      .   S
    C81    H22       1.08830      .   S
    C81    C79       1.39147      .   S
    C62    H9        1.08850      .   S
    C62    C64       1.39120      .   S
    C78    C79       1.40384      .   S
    C65    C64       1.40356      .   S
    C79    H20       1.08857      .   S
    C64    H11       1.08824      .   S
    C111   C113      1.40390      .   S
    C111   C109      1.39057      .   S
    C69    C71       1.40433      .   S
    C69    C67       1.39127      .   S
    H40    C109      1.08843      .   S
    C113   C112      1.40257      .   S
    C71    C70       1.40311      .   S
    H12    C67       1.08871      .   S
    C109   C108      1.40282      .   S
    C67    C66       1.40296      .   S
    H17    C74       1.08786      .   S
    C70    H15       1.08860      .   S
    C70    C68       1.39157      .   S
    H37    C104      1.08868      .   S
    C112   H43       1.08860      .   S
    C112   C110      1.38988      .   S
    C108   C110      1.40320      .   S
    C66    C68       1.40439      .   S
    C68    H13       1.08868      .   S
    C110   H41       1.08787      .   S
    C74    C72       1.40314      .   S
    C74    C76       1.38993      .   S
    C104   C102      1.40444      .   S
    C104   C106      1.39163      .   S
    H19    C76       1.08869      .   S
    C102   C103      1.40299      .   S
    H39    C106      1.08880      .   S
    C72    C73       1.40280      .   S
    C76    C77       1.40261      .   S
    C106   C107      1.40299      .   S
    H35    C100      1.08831      .   S
    H44    C115      1.08097      .   S
    C103   H36       1.08861      .   S
    C103   C105      1.39127      .   S
    C73    H16       1.08825      .   S
    C73    C75       1.39047      .   S
    C107   C105      1.40441      .   S
    C77    C75       1.40375      .   S
    C105   H38       1.08848      .   S
    C75    H18       1.08845      .   S
    C100   C101      1.40318      .   S
    C100   C98       1.39147      .   S
    C115   C114      1.40952      .   S
    C115   C117      1.39404      .   S
    H33    C98       1.08849      .   S
    H46    C117      1.08825      .   S
    C101   C99       1.40350      .   S
    C114   C116      1.40330      .   S
    C98    C96       1.40341      .   S
    C117   C119      1.40346      .   S
    H6     C57       1.08825      .   S
    C99    H34       1.08819      .   S
    C99    C97       1.39136      .   S
    H26    C87       1.08870      .   S
    C116   H45       1.07966      .   S
    C116   C118      1.39179      .   S
    C96    C97       1.40381      .   S
    C119   C118      1.40340      .   S
    C97    H32       1.08856      .   S
    C118   H47       1.08822      .   S
    C57    C59       1.40376      .   S
    C57    C55       1.39051      .   S
    C87    C89       1.40426      .   S
    C87    C85       1.39139      .   S
    H4     C55       1.08852      .   S
    C59    C58       1.40282      .   S
    C89    C88       1.40306      .   S
    H24    C85       1.08866      .   S
    C55    C54       1.40269      .   S
    C85    C84       1.40291      .   S
    C88    H27       1.08886      .   S
    C88    C86       1.39152      .   S
    C58    H7        1.08863      .   S
    C58    C56       1.38991      .   S
    C54    C56       1.40326      .   S
    C84    C86       1.40446      .   S
