# CIF file generated by openbabel 2.4.90, see http://openbabel.sf.net
data_I
_chemical_name_common ''
_cell_length_a 15.583
_cell_length_b 17.778
_cell_length_c 18.307
_cell_angle_alpha 112.399
_cell_angle_beta 89.999
_cell_angle_gamma 89.946
_space_group_name_H-M_alt 'P 1'
_space_group_name_Hall 'P 1'
loop_
    _symmetry_equiv_pos_as_xyz
    x,y,z
loop_
    _atom_site_label
    _atom_site_type_symbol
    _atom_site_fract_x
    _atom_site_fract_y
    _atom_site_fract_z
    _atom_site_occupancy
    Zn0     Zn   0.90067   0.00000   0.16639   1.000
    Zn1     Zn   0.50068   0.49779   0.16613   1.000
    Zn2     Zn   0.40376   0.50091   0.00296   1.000
    Zn3     Zn   0.59612   0.49775   0.33358   1.000
    Zn4     Zn   0.40056   0.49956   0.33311   1.000
    Zn5     Zn   0.00060   0.00232   0.33370   1.000
    Zn6     Zn   0.90360   0.99867   0.49695   1.000
    Zn7     Zn   0.90379   0.99742   0.83364   1.000
    Zn8     Zn   0.09934   0.99941   0.83368   1.000
    Zn9     Zn   0.49991   0.50218   0.83374   1.000
    Zn10    Zn   0.59975   0.49892   0.99692   1.000
    Zn11    Zn   0.40397   0.50204   0.66649   1.000
    Zn12    Zn   0.59951   0.50081   0.66636   1.000
    Zn13    Zn   0.99985   0.99773   0.66631   1.000
    Zn14    Zn   0.09962   0.00161   0.50318   1.000
    Zn15    Zn   0.00000   0.99995   0.10000   1.000
    Zn16    Zn   0.49997   0.50002   0.49993   1.000
    H17     H    0.99449   0.10683   0.13705   1.000
    H18     H    0.99911   0.89661   0.19670   1.000
    Zn19    Zn   0.09626   0.00259   0.16627   1.000
    H20     H    0.00000   0.10636   0.47244   1.000
    H21     H    0.00525   0.89301   0.86300   1.000
    H22     H    0.00000   0.10334   0.80300   1.000
    H23     H    0.00041   0.89388   0.52737   1.000
    C24     C    0.86216   0.12100   0.98080   1.000
    C25     C    0.84195   0.89465   0.01627   1.000
    O26     O    0.15908   0.90719   0.75860   1.000
    O27     O    0.93700   0.89127   0.31872   1.000
    O28     O    0.84438   0.90709   0.41934   1.000
    C29     C    0.16502   0.90185   0.35130   1.000
    C30     C    0.13645   0.12549   0.31581   1.000
    C31     C    0.15706   0.89226   0.68389   1.000
    C32     C    0.87145   0.87117   0.34776   1.000
    C33     C    0.13790   0.87892   0.01906   1.000
    C34     C    0.15810   0.10515   0.98380   1.000
    C35     C    0.83603   0.09784   0.64780   1.000
    C36     C    0.86363   0.87462   0.68397   1.000
    C37     C    0.84317   0.10744   0.31666   1.000
    C38     C    0.13013   0.12891   0.65283   1.000
    O39     O    0.99680   0.04807   0.12229   1.000
    O40     O    0.99949   0.95527   0.21051   1.000
    O41     O    0.93342   0.10894   0.00000   1.000
    O42     O    0.83438   0.08144   0.91002   1.000
    O43     O    0.88074   0.93713   0.98505   1.000
    O44     O    0.84085   0.90862   0.09093   1.000
    O45     O    0.12130   0.94053   0.31927   1.000
    O46     O    0.16647   0.91594   0.42610   1.000
    O47     O    0.00270   0.04741   0.45660   1.000
    O48     O    0.06667   0.11184   0.34379   1.000
    O49     O    0.16263   0.08806   0.24406   1.000
    O50     O    0.11889   0.93504   0.65248   1.000
    O51     O    0.00301   0.95177   0.87774   1.000
    O52     O    0.00000   0.04465   0.78951   1.000
    O53     O    0.06667   0.89095   0.99215   1.000
    O54     O    0.16561   0.91854   0.08986   1.000
    O55     O    0.11919   0.06295   0.01525   1.000
    O56     O    0.15918   0.09092   0.90909   1.000
    O57     O    0.88002   0.05947   0.68003   1.000
    O58     O    0.83494   0.08375   0.57303   1.000
    O59     O    0.00000   0.95286   0.54349   1.000
    O60     O    0.93335   0.88834   0.65590   1.000
    O61     O    0.83746   0.91201   0.75574   1.000
    O62     O    0.88156   0.06508   0.34840   1.000
    O63     O    0.84095   0.09206   0.24181   1.000
    O64     O    0.06401   0.10898   0.68122   1.000
    O65     O    0.15843   0.09261   0.58165   1.000
loop_
    _geom_bond_atom_site_label_1
    _geom_bond_atom_site_label_2
    _geom_bond_distance
    _geom_bond_site_symmetry_2
    _ccdc_geom_bond_type
    O41    C24       1.20822  1_554   S
    O55    C34       1.26176  1_554   S
    C25    O44       1.29284      .   S
    C25    O43       1.26176  1_554   S
    C33    O54       1.29126      .   S
    C33    O53       1.26498  1_554   S
    O54    Zn19      1.93942  1_565   S
    O44    Zn0       1.92591  1_565   S
    O39    H17       0.97489      .   S
    O39    Zn15      0.79663  1_645   S
    Zn19   O49       1.93925      .   S
    Zn0    O40       2.03553  1_545   S
    Zn0    O63       1.93034      .   S
    H18    O40       0.97503      .   S
    O63    C37       1.29156      .   S
    O49    C30       1.29148      .   S
    C30    O48       1.26444      .   S
    C37    O62       1.26302      .   S
    O27    Zn5       2.13226  1_665   S
    O27    C32       1.26458      .   S
    O45    Zn5       2.14221  1_565   S
    O45    C29       1.25989      .   S
    Zn5    O48       2.14817      .   S
    Zn5    O62       2.12743  1_455   S
    C32    O28       1.29023      .   S
    C29    O46       1.29498      .   S
    O28    Zn6       1.93937      .   S
    O46    Zn14      1.93773  1_565   S
    O47    H20       0.97589      .   S
    O47    Zn6       2.04248  1_445   S
    Zn6    O59       2.04267  1_655   S
    Zn6    O58       1.94000  1_565   S
    Zn14   O65       1.93716      .   S
    H23    O59       0.97503      .   S
    O58    C35       1.29434      .   S
    O65    C38       1.29135      .   S
    C35    O57       1.26075      .   S
    O50    Zn13      2.12795  1_455   S
    O50    C31       1.26300      .   S
    C38    O64       1.26418      .   S
    O60    Zn13      2.14778      .   S
    O60    C36       1.26490      .   S
    Zn13   O57       2.13085  1_565   S
    Zn13   O64       2.13970  1_665   S
    C31    O26       1.29054      .   S
    C36    O61       1.29164      .   S
    O61    Zn7       1.93915      .   S
    O26    Zn8       1.92962      .   S
    O52    H22       0.97639      .   S
    O52    Zn7       2.03095  1_445   S
    Zn7    O42       1.93942  1_565   S
    Zn8    O51       2.03578      .   S
    Zn8    O56       1.92703  1_565   S
    H21    O51       0.97489      .   S
    O56    C34       1.29274      .   S
    O42    C24       1.29115      .   S
    O39    Zn19      2.04895  1_655   S
    O39    Zn0       2.03814      .   S
    O40    Zn19      2.03930  1_665   S
    O40    Zn5       2.08529  1_665   S
    O47    Zn5       2.08119      .   S
    O47    Zn14      2.04900      .   S
    O51    Zn7       2.04888  1_455   S
    O52    Zn8       2.04707  1_545   S
    O52    Zn13      2.08541  1_445   S
    O59    Zn13      2.07967  1_455   S
    O59    Zn14      2.04828  1_565   S
