# CIF file generated by openbabel 2.4.90, see http://openbabel.sf.net
data_I
_chemical_name_common ''
_cell_length_a 15.583
_cell_length_b 17.778
_cell_length_c 18.307
_cell_angle_alpha 112.399
_cell_angle_beta 89.999
_cell_angle_gamma 89.946
_space_group_name_H-M_alt 'P 1'
_space_group_name_Hall 'P 1'
loop_
    _symmetry_equiv_pos_as_xyz
    x,y,z
loop_
    _atom_site_label
    _atom_site_type_symbol
    _atom_site_fract_x
    _atom_site_fract_y
    _atom_site_fract_z
    _atom_site_occupancy
    H0      H    0.50343   0.39374   0.02754   1.000
    H1      H    0.49495   0.39343   0.36302   1.000
    H2      H    0.49846   0.60345   0.30300   1.000
    H3      H    0.49970   0.60623   0.97262   1.000
    H4      H    0.50459   0.60668   0.63684   1.000
    H5      H    0.50236   0.39653   0.69660   1.000
    C6      C    0.63646   0.37456   0.18439   1.000
    C7      C    0.65700   0.60789   0.81621   1.000
    C8      C    0.37116   0.62857   0.15195   1.000
    O9      O    0.62156   0.55959   0.18081   1.000
    C10     C    0.36339   0.37791   0.51849   1.000
    C11     C    0.34178   0.60501   0.48365   1.000
    C12     C    0.66524   0.59825   0.14870   1.000
    C13     C    0.36361   0.62518   0.81577   1.000
    C14     C    0.34334   0.39240   0.18243   1.000
    C15     C    0.63055   0.37146   0.84749   1.000
    C16     C    0.63670   0.62199   0.48156   1.000
    C17     C    0.65819   0.39494   0.51606   1.000
    C18     C    0.33691   0.40144   0.85184   1.000
    O19     O    0.50333   0.45269   0.04341   1.000
    O20     O    0.56662   0.38828   0.15652   1.000
    O21     O    0.66283   0.41220   0.25603   1.000
    O22     O    0.61885   0.56518   0.84764   1.000
    O23     O    0.65906   0.59298   0.74143   1.000
    O24     O    0.43692   0.60874   0.18099   1.000
    O25     O    0.34411   0.59242   0.08042   1.000
    O26     O    0.49692   0.45216   0.37751   1.000
    O27     O    0.49911   0.54477   0.28910   1.000
    O28     O    0.43372   0.39064   0.49073   1.000
    O29     O    0.33671   0.41661   0.58984   1.000
    O30     O    0.38046   0.56245   0.51492   1.000
    O31     O    0.34077   0.59106   0.40899   1.000
    O32     O    0.66650   0.58436   0.07399   1.000
    O33     O    0.50003   0.54726   0.95650   1.000
    O34     O    0.43339   0.61139   0.84369   1.000
    O35     O    0.33727   0.58758   0.74410   1.000
    O36     O    0.38167   0.43457   0.15049   1.000
    O37     O    0.34106   0.40795   0.25732   1.000
    O38     O    0.56424   0.39124   0.81918   1.000
    O39     O    0.65900   0.40800   0.91852   1.000
    O40     O    0.50270   0.54794   0.62231   1.000
    O41     O    0.50147   0.45522   0.71060   1.000
    O42     O    0.56631   0.60937   0.50932   1.000
    O43     O    0.66339   0.58315   0.41020   1.000
    O44     O    0.61937   0.43733   0.48467   1.000
    O45     O    0.65926   0.40911   0.59070   1.000
    O46     O    0.38021   0.44017   0.81955   1.000
    O47     O    0.33672   0.41500   0.92650   1.000
loop_
    _geom_bond_atom_site_label_1
    _geom_bond_atom_site_label_2
    _geom_bond_distance
    _geom_bond_site_symmetry_2
    _ccdc_geom_bond_type
    H0     O19       0.97503      .   S
    O32    C12       1.29408      .   S
    O25    C8        1.29024      .   S
    C12    O9        1.26097      .   S
    O36    C14       1.26316      .   S
    C8     O24       1.26462      .   S
    O20    C6        1.26430      .   S
    C14    O37       1.29172      .   S
    C6     O21       1.29167      .   S
    O27    H2        0.97506      .   S
    H1     O26       0.97494      .   S
    O31    C11       1.29286      .   S
    O43    C16       1.29164      .   S
    C16    O42       1.26452      .   S
    C11    O30       1.26208      .   S
    O44    C17       1.26235      .   S
    O28    C10       1.26446      .   S
    C17    O45       1.29172      .   S
    C10    O29       1.29106      .   S
    O40    H4        0.97490      .   S
    H5     O41       0.97510      .   S
    O23    C7        1.29184      .   S
    O35    C13       1.29186      .   S
    C13    O34       1.26426      .   S
    C7     O22       1.26283      .   S
    O38    C15       1.26429      .   S
    O46    C18       1.26088      .   S
    C15    O39       1.29082      .   S
    C18    O47       1.29428      .   S
    O33    H3        0.97492      .   S
