# CIF file generated by openbabel 2.4.90, see http://openbabel.sf.net
data_I
_chemical_name_common ''
_cell_length_a 15.137
_cell_length_b 17.67
_cell_length_c 15.41
_cell_angle_alpha 61.016
_cell_angle_beta 89.944
_cell_angle_gamma 89.954
_space_group_name_H-M_alt 'P 1'
_space_group_name_Hall 'P 1'
loop_
    _symmetry_equiv_pos_as_xyz
    x,y,z
loop_
    _atom_site_label
    _atom_site_type_symbol
    _atom_site_fract_x
    _atom_site_fract_y
    _atom_site_fract_z
    _atom_site_occupancy
    La0     La   0.47596   0.95987   0.39972   1.000
    La1     La   0.02041   0.45966   0.89958   1.000
    La2     La   0.52039   0.03869   0.60302   1.000
    B3      B    0.12911   0.81173   0.77965   1.000
    B4      B    0.13678   0.74020   0.72842   1.000
    B5      B    0.22509   0.66742   0.78847   1.000
    B6      B    0.27201   0.69311   0.87730   1.000
    B7      B    0.21272   0.78262   0.87147   1.000
    B8      B    0.22771   0.87150   0.75280   1.000
    B9      B    0.18072   0.84565   0.66395   1.000
    B10     B    0.24014   0.75639   0.66965   1.000
    B11     B    0.32381   0.72729   0.76147   1.000
    B12     B    0.31576   0.79836   0.81312   1.000
    B13     B    0.92813   0.57986   0.43091   1.000
    B14     B    0.04402   0.58938   0.40912   1.000
    B15     B    0.08613   0.48448   0.44363   1.000
    B16     B    0.00000   0.40990   0.48716   1.000
    B17     B    0.89855   0.46867   0.47929   1.000
    B18     B    0.62934   0.68645   0.72309   1.000
    B19     B    0.63662   0.75802   0.77430   1.000
    B20     B    0.72484   0.83091   0.71423   1.000
    B21     B    0.77208   0.80525   0.62541   1.000
    B22     B    0.71309   0.71566   0.63126   1.000
    B23     B    0.72809   0.62682   0.74994   1.000
    B24     B    0.68077   0.65262   0.83878   1.000
    B25     B    0.73988   0.74197   0.83305   1.000
    B26     B    0.82369   0.77116   0.74123   1.000
    B27     B    0.81603   0.70006   0.68960   1.000
    B28     B    0.42790   0.91853   0.07168   1.000
    B29     B    0.54376   0.90847   0.09361   1.000
    B30     B    0.58627   0.01319   0.05925   1.000
    B31     B    0.49643   0.08816   0.01568   1.000
    La32    La   0.97578   0.53839   0.10298   1.000
    B33     B    0.39875   0.02984   0.02336   1.000
    B34     B    0.86714   0.18649   0.22301   1.000
    B35     B    0.85962   0.25816   0.27408   1.000
    B36     B    0.77136   0.33098   0.21400   1.000
    B37     B    0.72431   0.30519   0.12529   1.000
    B38     B    0.78348   0.21556   0.13125   1.000
    B39     B    0.76848   0.12680   0.25000   1.000
    B40     B    0.81559   0.15275   0.33871   1.000
    B41     B    0.75631   0.24212   0.33289   1.000
    B42     B    0.67258   0.27119   0.24112   1.000
    B43     B    0.68047   0.19999   0.18962   1.000
    B44     B    0.06823   0.41778   0.57189   1.000
    B45     B    0.95233   0.40826   0.59368   1.000
    B46     B    0.91023   0.51317   0.55917   1.000
    B47     B    0.00035   0.58774   0.51564   1.000
    B48     B    0.09780   0.52897   0.52351   1.000
    B49     B    0.36699   0.31202   0.27934   1.000
    B50     B    0.35968   0.24023   0.22844   1.000
    B51     B    0.27146   0.16740   0.28867   1.000
    B52     B    0.22423   0.19333   0.37728   1.000
    B53     B    0.28325   0.28302   0.37114   1.000
    B54     B    0.26825   0.37169   0.25232   1.000
    B55     B    0.31555   0.34561   0.16370   1.000
    B56     B    0.25643   0.25616   0.16971   1.000
    B57     B    0.17262   0.22718   0.26151   1.000
    B58     B    0.18030   0.29850   0.31283   1.000
    B59     B    0.56868   0.08004   0.93098   1.000
    B60     B    0.45283   0.09010   0.90902   1.000
    B61     B    0.41033   0.98538   0.94338   1.000
    B62     B    0.50014   0.91040   0.98698   1.000
    B63     B    0.59783   0.00000   0.97929   1.000
    H64     H    0.05860   0.83402   0.79242   1.000
    H65     H    0.07151   0.71549   0.70760   1.000
    H66     H    0.21934   0.59406   0.80737   1.000
    H67     H    0.29664   0.63665   0.95490   1.000
    H68     H    0.19806   0.78569   0.94511   1.000
    H69     H    0.15584   0.90195   0.58641   1.000
    H70     H    0.25467   0.75290   0.59619   1.000
    H71     H    0.39428   0.70469   0.74893   1.000
    H72     H    0.38103   0.82254   0.83447   1.000
    H73     H    0.87993   0.63486   0.37502   1.000
    H74     H    0.07300   0.65055   0.33877   1.000
    H75     H    0.14308   0.47589   0.39607   1.000
    H76     H    0.00000   0.35253   0.46806   1.000
    H77     H    0.83107   0.45052   0.45496   1.000
    H78     H    0.55896   0.66404   0.71037   1.000
    H79     H    0.57122   0.78263   0.79515   1.000
    H80     H    0.71888   0.90425   0.69533   1.000
    H81     H    0.79672   0.86173   0.54780   1.000
    H82     H    0.69864   0.71255   0.55764   1.000
    H83     H    0.73454   0.55347   0.76928   1.000
    H84     H    0.65591   0.59628   0.91634   1.000
    H85     H    0.75422   0.74547   0.90651   1.000
    H86     H    0.89406   0.79385   0.75374   1.000
    H87     H    0.88145   0.67597   0.66823   1.000
    H88     H    0.37946   0.86373   0.12746   1.000
    H89     H    0.57247   0.84714   0.16396   1.000
    H90     H    0.64321   0.02148   0.10691   1.000
    H91     H    0.49435   0.14550   0.03485   1.000
    H92     H    0.33130   0.04827   0.04761   1.000
    H93     H    0.93760   0.16410   0.21027   1.000
    H94     H    0.92495   0.28284   0.29482   1.000
    H95     H    0.77720   0.40436   0.19498   1.000
    H96     H    0.69972   0.36162   0.04766   1.000
    H97     H    0.79808   0.21239   0.05767   1.000
    H98     H    0.76216   0.05341   0.26944   1.000
    H99     H    0.84046   0.09647   0.41629   1.000
    H100    H    0.74184   0.24570   0.40631   1.000
    H101    H    0.60215   0.29388   0.25364   1.000
    H102    H    0.61515   0.17584   0.16834   1.000
    H103    H    0.11643   0.36278   0.62778   1.000
    H104    H    0.92336   0.34709   0.66404   1.000
    H105    H    0.85328   0.52175   0.60673   1.000
    H106    H    0.00261   0.64511   0.53474   1.000
    H107    H    0.16529   0.54713   0.54783   1.000
    H108    H    0.43738   0.33448   0.29197   1.000
    H109    H    0.42509   0.21551   0.20772   1.000
    H110    H    0.27739   0.09399   0.30780   1.000
    H111    H    0.19958   0.13697   0.45496   1.000
    H112    H    0.29769   0.28633   0.44465   1.000
    H113    H    0.26182   0.44509   0.23275   1.000
    H114    H    0.34044   0.40182   0.08607   1.000
    H115    H    0.24209   0.25246   0.09637   1.000
    H116    H    0.10225   0.20444   0.24908   1.000
    H117    H    0.11489   0.32270   0.33406   1.000
    H118    H    0.61711   0.13485   0.87519   1.000
    H119    H    0.42411   0.15143   0.83867   1.000
    H120    H    0.35337   0.97709   0.89574   1.000
    H121    H    0.50221   0.85306   0.96784   1.000
    H122    H    0.66527   0.00000   0.95501   1.000
    C123    C    0.16173   0.70649   0.85012   1.000
    C124    C    0.29108   0.83249   0.69097   1.000
    C125    C    0.09799   0.64569   0.92934   1.000
    C126    C    0.35612   0.89558   0.61449   1.000
    C127    C    0.00000   0.51462   0.39509   1.000
    C128    C    0.00000   0.52974   0.29036   1.000
    C129    C    0.66177   0.79175   0.65259   1.000
    C130    C    0.79114   0.66595   0.81175   1.000
    C131    C    0.59806   0.85248   0.57332   1.000
    C132    C    0.85620   0.60298   0.88823   1.000
    C133    C    0.48231   0.98345   0.10767   1.000
    C134    C    0.46757   0.96828   0.21247   1.000
    C135    C    0.83459   0.29174   0.15243   1.000
    C136    C    0.70524   0.16600   0.31174   1.000
    C137    C    0.89828   0.35241   0.07308   1.000
    C138    C    0.64015   0.10307   0.38826   1.000
    C139    C    0.01404   0.48302   0.60771   1.000
    C140    C    0.02870   0.46790   0.71245   1.000
    C141    C    0.33455   0.20676   0.35009   1.000
    C142    C    0.20518   0.33236   0.19073   1.000
    C143    C    0.39826   0.14606   0.42940   1.000
    C144    C    0.14013   0.39525   0.11416   1.000
    C145    C    0.51431   0.01510   0.89498   1.000
    C146    C    0.52936   0.03018   0.79027   1.000
    O147    O    0.07754   0.66036   0.99904   1.000
    O148    O    0.06684   0.58120   0.92262   1.000
    O149    O    0.37021   0.88994   0.53669   1.000
    O150    O    0.92601   0.47285   0.27783   1.000
    O151    O    0.00000   0.59762   0.21758   1.000
    O152    O    0.57765   0.83763   0.50380   1.000
    O153    O    0.56691   0.91715   0.57978   1.000
    O154    O    0.89238   0.54916   0.86705   1.000
    O155    O    0.87014   0.60870   0.96597   1.000
    O156    O    0.42596   0.02520   0.22511   1.000
    O157    O    0.49942   0.90038   0.28518   1.000
    O158    O    0.91868   0.33754   0.00354   1.000
    O159    O    0.92942   0.41707   0.07949   1.000
    O160    O    0.60399   0.04927   0.36710   1.000
    O161    O    0.62614   0.10878   0.46603   1.000
    O162    O    0.07038   0.52476   0.72497   1.000
    O163    O    0.99672   0.40011   0.78522   1.000
    O164    O    0.41864   0.16090   0.49894   1.000
    O165    O    0.42944   0.08142   0.42290   1.000
    O166    O    0.10396   0.44920   0.13515   1.000
    O167    O    0.12614   0.38937   0.03653   1.000
    O168    O    0.56996   0.00000   0.77794   1.000
    O169    O    0.49881   0.09868   0.71726   1.000
loop_
    _geom_bond_atom_site_label_1
    _geom_bond_atom_site_label_2
    _geom_bond_distance
    _geom_bond_site_symmetry_2
    _ccdc_geom_bond_type
    O158   C137      1.25897      .   S
    O158   La1       2.49888  1_654   S
    B31    H91       1.18512      .   S
    B31    B60       1.75667  1_554   S
    B31    B59       1.76032  1_554   S
    B33    H92       1.18525      .   S
    B33    C133      1.71151  1_545   S
    B33    B60       1.75744  1_554   S
    B33    B61       1.76195  1_544   S
    O167   C144      1.26801      .   S
    O167   La1       2.45376  1_554   S
    H96    B37       1.18669      .   S
    H97    B38       1.18275      .   S
    B30    H90       1.18724      .   S
    B30    C133      1.71111  1_545   S
    B30    B63       1.37151  1_554   S
    B28    C133      1.70907      .   S
    B28    H88       1.18638      .   S
    B28    B61       1.76414  1_554   S
    B28    B62       1.76033  1_554   S
    C137   O159      1.28348      .   S
    C137   C135      1.51756      .   S
    O159   La32      2.44424      .   S
    H114   B55       1.18653      .   S
    B29    H89       1.18327      .   S
    B29    B62       1.75637  1_554   S
    H115   B56       1.18357      .   S
    La32   O166      2.39450  1_655   S
    La32   O151      2.47823  1_655   S
    La32   O150      2.47829      .   S
    La32   O155      2.45344  1_554   S
    La32   O147      2.49759  1_654   S
    C133   C134      1.51967      .   S
    C144   O166      1.26919      .   S
    C144   C142      1.52531      .   S
    B37    C135      1.70943      .   S
    B37    B43       1.75875      .   S
    B37    B42       1.76603      .   S
    B38    B43       1.75330      .   S
    B38    B39       1.75448      .   S
    C135   B36       1.71229      .   S
    C135   B34       1.70991      .   S
    B55    C142      1.71002      .   S
    B55    B50       1.76293      .   S
    B55    B49       1.76386      .   S
    H102   B43       1.18508      .   S
    B56    B50       1.75963      .   S
    B56    B51       1.75662      .   S
    C142   B54       1.71388      .   S
    C142   B57       1.70960      .   S
    H95    B36       1.18609      .   S
    H109   B50       1.18603      .   S
    H93    B34       1.18601      .   S
    C134   O156      1.27850  1_565   S
    C134   O157      1.27469      .   S
    B36    B42       1.76060      .   S
    B36    B41       1.75661      .   S
    O151   C128      1.18008      .   S
    B34    B39       1.75842      .   S
    B34    B40       1.76381      .   S
    O156   La0       2.47750  1_545   S
    H113   B54       1.18464      .   S
    B42    H101      1.18675      .   S
    B42    C136      1.70960      .   S
    H116   B57       1.18677      .   S
    B39    H98       1.18493      .   S
    B39    C136      1.71381      .   S
    B54    B49       1.75839      .   S
    B54    B53       1.75466      .   S
    B57    B51       1.76053      .   S
    B57    B52       1.76607      .   S
    B35    H94       1.18604      .   S
    B35    B41       1.75968      .   S
    B35    B40       1.76300      .   S
    O150   C128      1.57883  1_655   S
    B49    H108      1.18601      .   S
    B49    C141      1.71012      .   S
    O157   La0       2.47837      .   S
    B51    H110      1.18605      .   S
    B51    C141      1.71243      .   S
    C128   C127      1.50280      .   S
    C136   B40       1.71004      .   S
    C136   C138      1.52528      .   S
    B58    H117      1.18513      .   S
    B58    B53       1.75346      .   S
    B58    B52       1.75876      .   S
    B41    H100      1.18357      .   S
    B40    H99       1.18650      .   S
    H74    B14       1.18331      .   S
    C141   B52       1.70972      .   S
    C141   C143      1.51795      .   S
    O160   C138      1.26938      .   S
    O160   La0       2.39529  1_545   S
    B53    H112      1.18279      .   S
    H73    B13       1.18635      .   S
    B52    H111      1.18670      .   S
    C138   O161      1.26809      .   S
    C127   B14       1.58567      .   S
    C127   B15       1.46884      .   S
    C127   B16       1.70075      .   S
    H75    B15       1.18729      .   S
    La0    O165      2.44487  1_565   S
    La0    O152      2.49984      .   S
    La0    O149      2.45224      .   S
    B14    B47       1.75613      .   S
    B14    B48       1.75709      .   S
    O165   C143      1.28342      .   S
    C143   O164      1.25912      .   S
    B13    B47       1.76028  1_655   S
    B13    B46       1.76375      .   S
    B15    B16       1.74084      .   S
    B15    B48       1.76162      .   S
    H77    B17       1.18519      .   S
    O161   La2       2.45258      .   S
    H76    B16       1.18457      .   S
    B17    B46       1.76159      .   S
    B17    B45       1.75709      .   S
    B16    B44       1.72339      .   S
    O164   La2       2.50016      .   S
    O152   C131      1.25910      .   S
    B47    H106      1.18510      .   S
    B48    H107      1.18520      .   S
    B48    C139      1.71107      .   S
    O149   C126      1.26809      .   S
    H81    B21       1.18671      .   S
    H82    B22       1.18277      .   S
    B46    H105      1.18727      .   S
    B46    C139      1.71101  1_655   S
    B44    B45       1.77855  1_455   S
    B44    C139      1.70888      .   S
    B44    H103      1.18635      .   S
    C131   O153      1.28349      .   S
    C131   C129      1.51792      .   S
    O153   La2       2.44507  1_565   S
    H69    B9        1.18650      .   S
    B45    H104      1.18329      .   S
    H70    B10       1.18359      .   S
    La2    O169      2.47728      .   S
    C139   C140      1.51938      .   S
    C126   C124      1.52551      .   S
    B21    C129      1.70967      .   S
    B21    B27       1.75879      .   S
    B21    B26       1.76601      .   S
    B22    B27       1.75339      .   S
    B22    B23       1.75454      .   S
    C129   B20       1.71240      .   S
    C129   B18       1.71014      .   S
    B9     C124      1.71013      .   S
    B9     B4        1.76297      .   S
    B9     B3        1.76385      .   S
    H87    B27       1.18512      .   S
    B10    B4        1.75965      .   S
    B10    B5        1.75671      .   S
    C124   B8        1.71374      .   S
    C124   B11       1.70979      .   S
    H80    B20       1.18604      .   S
    H65    B4        1.18606      .   S
    H78    B18       1.18599      .   S
    C140   O162      1.27831      .   S
    C140   O163      1.27462  1_455   S
    B20    B26       1.76060      .   S
    B20    B25       1.75660      .   S
    O169   C146      1.27479      .   S
    B18    B23       1.75839      .   S
    B18    B24       1.76378      .   S
    O162   La1       2.47659      .   S
    B26    H86       1.18676      .   S
    B26    C130      1.70957      .   S
    H71    B11       1.18677      .   S
    B23    H83       1.18464      .   S
    B23    C130      1.71384      .   S
    B8     B3        1.75840      .   S
    B8     B7        1.75457      .   S
    B11    B5        1.76068      .   S
    B11    B6        1.76612      .   S
    B19    H79       1.18602      .   S
    B19    B25       1.75965      .   S
    B19    B24       1.76299      .   S
    O168   C146      0.89185      .   S
    B3     H64       1.18602      .   S
    B3     C123      1.70993      .   S
    O163   La1       2.47793  1_655   S
    B5     H66       1.18608      .   S
    B5     C123      1.71238      .   S
    C146   C145      1.51974      .   S
    C130   B24       1.70995      .   S
    C130   C132      1.52521      .   S
    B12    H72       1.18510      .   S
    B12    B7        1.75344      .   S
    B12    B6        1.75886      .   S
    B25    H85       1.18356      .   S
    H119   B60       1.18333      .   S
    B24    H84       1.18653      .   S
    C123   B6        1.70960      .   S
    C123   C125      1.51779      .   S
    O154   C132      1.26911      .   S
    O154   La1       2.39513  1_655   S
    B7     H68       1.18276      .   S
    H118   B59       1.18634      .   S
    B6     H67       1.18670      .   S
    C132   O155      1.26811      .   S
    C145   B59       1.70914      .   S
    C145   B61       1.71133  1_545   S
    C145   B62       1.71377  1_545   S
    H120   B61       1.18730      .   S
    La1    O148      2.44414      .   S
    O148   C125      1.28330      .   S
    C125   O147      1.25913      .   S
    B59    B63       1.31475      .   S
    H122   B63       1.08689      .   S
    H121   B62       1.18505      .   S
    O148   La32      2.85540  1_456   S
    O153   La0       2.85312      .   S
    O159   La1       2.84977  1_654   S
    O165   La2       2.85379      .   S
    O168   La2       2.55220      .   S
