# CIF file generated by openbabel 2.4.90, see http://openbabel.sf.net
data_I
_chemical_name_common ''
_cell_length_a 15.137
_cell_length_b 17.67
_cell_length_c 15.41
_cell_angle_alpha 61.016
_cell_angle_beta 89.944
_cell_angle_gamma 89.954
_space_group_name_H-M_alt 'P 1'
_space_group_name_Hall 'P 1'
loop_
    _symmetry_equiv_pos_as_xyz
    x,y,z
loop_
    _atom_site_label
    _atom_site_type_symbol
    _atom_site_fract_x
    _atom_site_fract_y
    _atom_site_fract_z
    _atom_site_occupancy
    La0     La   0.47596   0.95987   0.39972   1.000
    La1     La   0.02041   0.45966   0.89958   1.000
    La2     La   0.52039   0.03869   0.60302   1.000
    La3     La   0.97578   0.53839   0.10298   1.000
