# CIF file generated by openbabel 2.4.90, see http://openbabel.sf.net
data_I
_chemical_name_common ''
_cell_length_a 15.137
_cell_length_b 17.67
_cell_length_c 15.41
_cell_angle_alpha 61.016
_cell_angle_beta 89.944
_cell_angle_gamma 89.954
_space_group_name_H-M_alt 'P 1'
_space_group_name_Hall 'P 1'
loop_
    _symmetry_equiv_pos_as_xyz
    x,y,z
loop_
    _atom_site_label
    _atom_site_type_symbol
    _atom_site_fract_x
    _atom_site_fract_y
    _atom_site_fract_z
    _atom_site_occupancy
    Zr0     Zr   0.97578   0.53839   0.10298   1.000
    Zr1     Zr   0.47596   0.95987   0.39972   1.000
    Zr2     Zr   0.02041   0.45966   0.89958   1.000
    Zr3     Zr   0.52039   0.03869   0.60302   1.000
    N4      N    0.00035   0.49882   0.50140   1.000
    N5      N    0.49834   0.00314   0.00133   1.000
    N6      N    0.21982   0.75592   0.77781   1.000
    O7      O    0.32145   0.84041   0.62301   1.000
    O8      O    0.13172   0.63818   0.84445   1.000
    N9      N    0.72654   0.72875   0.73156   1.000
    O10     O    0.82475   0.65115   0.88302   1.000
    O11     O    0.84147   0.61658   0.80744   1.000
    O12     O    0.63510   0.85333   0.66148   1.000
    N13     N    0.26977   0.26965   0.27101   1.000
    O14     O    0.17152   0.34708   0.11953   1.000
    O15     O    0.36124   0.14515   0.34116   1.000
    O16     O    0.15482   0.38172   0.19504   1.000
    N17     N    0.76983   0.22877   0.23147   1.000
    O18     O    0.86121   0.35325   0.16135   1.000
    O19     O    0.67155   0.15125   0.38300   1.000
    O20     O    0.65490   0.11667   0.30744   1.000
    O21     O    0.12190   0.66775   0.90485   1.000
    O22     O    0.98487   0.51782   0.33837   1.000
    O23     O    0.87103   0.32363   0.10101   1.000
    O24     O    0.01366   0.47994   0.66437   1.000
    O25     O    0.48383   0.98223   0.16438   1.000
    O26     O    0.62533   0.82369   0.60116   1.000
    O27     O    0.51286   0.02358   0.83832   1.000
    O28     O    0.37100   0.17479   0.40149   1.000
loop_
    _geom_bond_atom_site_label_1
    _geom_bond_atom_site_label_2
    _geom_bond_distance
    _geom_bond_site_symmetry_2
    _ccdc_geom_bond_type
    N6     O7        2.61365      .   S
    Zr1    O7        3.83645      .   S
    N6     O8        2.25672      .   S
    Zr2    O8        3.30445      .   S
    N9     O10       2.53760      .   S
    Zr0    O10       3.76140  1_554   S
    N9     O11       2.46461      .   S
    Zr2    O11       3.63603  1_455   S
    N9     O12       2.37123      .   S
    Zr3    O12       3.41874  1_545   S
    N13    O14       2.53789      .   S
    Zr2    O14       3.76182  1_556   S
    N13    O15       2.37034      .   S
    Zr1    O15       3.41747  1_565   S
    N13    O16       2.46404      .   S
    Zr0    O16       3.63459  1_655   S
    N17    O18       2.37015      .   S
    Zr0    O18       3.41654      .   S
    N17    O19       2.53745      .   S
    Zr3    O19       3.76078      .   S
    N17    O20       2.46471      .   S
    Zr1    O20       3.63617  1_565   S
    Zr0    O21       3.55951  1_654   S
    N6     O21       2.34502      .   S
    Zr0    O22       3.46873      .   S
    N4     O22       2.37971  1_455   S
    Zr2    O23       3.64551  1_456   S
    N17    O23       2.43519      .   S
    Zr2    O24       3.46683      .   S
    N4     O24       2.37647      .   S
    Zr1    O25       3.45433      .   S
    N5     O25       2.36586  1_545   S
    Zr1    O26       3.64752      .   S
    N9     O26       2.43608      .   S
    N5     O27       2.36829  1_554   S
    Zr3    O27       3.50618      .   S
    Zr3    O28       3.64815      .   S
    N13    O28       2.43635      .   S
