# CIF file generated by openbabel 2.4.90, see http://openbabel.sf.net
data_I
_chemical_name_common ''
_cell_length_a 15.137
_cell_length_b 17.67
_cell_length_c 15.41
_cell_angle_alpha 61.016
_cell_angle_beta 89.944
_cell_angle_gamma 89.954
_space_group_name_H-M_alt 'P 1'
_space_group_name_Hall 'P 1'
loop_
    _symmetry_equiv_pos_as_xyz
    x,y,z
loop_
    _atom_site_label
    _atom_site_type_symbol
    _atom_site_fract_x
    _atom_site_fract_y
    _atom_site_fract_z
    _atom_site_occupancy
    Zr0     Zr   0.97578   0.53839   0.10298   1.000
    Zr1     Zr   0.47596   0.95987   0.39972   1.000
    Zr2     Zr   0.02041   0.45966   0.89958   1.000
    Zr3     Zr   0.52039   0.03869   0.60302   1.000
    N4      N    0.00035   0.49882   0.50140   1.000
    O5      O    0.00446   0.46436   0.67190   1.000
    O6      O    0.02287   0.49552   0.65684   1.000
    O7      O    0.99412   0.53341   0.33084   1.000
    O8      O    0.97562   0.50222   0.34590   1.000
    N9      N    0.49834   0.00314   0.00133   1.000
    O10     O    0.50397   0.03591   0.83074   1.000
    O11     O    0.52176   0.01124   0.84591   1.000
    O12     O    0.49302   0.96663   0.17189   1.000
    O13     O    0.47465   0.99784   0.15687   1.000
    N14     N    0.21982   0.75592   0.77781   1.000
    O15     O    0.32145   0.84041   0.62301   1.000
    O16     O    0.13172   0.63818   0.84445   1.000
    O17     O    0.12056   0.65786   0.89530   1.000
    O18     O    0.12324   0.67765   0.91441   1.000
    N19     N    0.72654   0.72875   0.73156   1.000
    O20     O    0.82475   0.65115   0.88302   1.000
    O21     O    0.84147   0.61658   0.80744   1.000
    O22     O    0.62667   0.81375   0.59166   1.000
    O23     O    0.63510   0.85333   0.66148   1.000
    O24     O    0.62399   0.83363   0.61066   1.000
    N25     N    0.23393   0.00000   0.73347   1.000
    N26     N    0.26977   0.26965   0.27101   1.000
    O27     O    0.17152   0.34708   0.11953   1.000
    O28     O    0.36124   0.14515   0.34116   1.000
    O29     O    0.37235   0.16485   0.39199   1.000
    O30     O    0.15482   0.38172   0.19504   1.000
    O31     O    0.36964   0.18472   0.41099   1.000
    N32     N    0.76983   0.22877   0.23147   1.000
    O33     O    0.86969   0.31369   0.09151   1.000
    O34     O    0.86121   0.35325   0.16135   1.000
    O35     O    0.87237   0.33357   0.11050   1.000
    O36     O    0.67155   0.15125   0.38300   1.000
    O37     O    0.65490   0.11667   0.30744   1.000
    N38     N    0.39215   0.00000   0.63569   1.000
    O39     O    0.42421   0.00967   0.62752   1.000
loop_
    _geom_bond_atom_site_label_1
    _geom_bond_atom_site_label_2
    _geom_bond_distance
    _geom_bond_site_symmetry_2
    _ccdc_geom_bond_type
    N4     O5        2.39324      .   S
    Zr2    O5        3.47776      .   S
    N4     O6        2.39229      .   S
    Zr2    O6        3.47829      .   S
    N4     O7        2.39461  1_455   S
    Zr0    O7        3.48095      .   S
    N4     O8        2.39749  1_455   S
    Zr0    O8        3.47898      .   S
    N9     O10       2.40373  1_554   S
    Zr3    O10       3.49425      .   S
    N9     O11       2.35560  1_554   S
    Zr3    O11       3.53355      .   S
    N9     O12       2.38478  1_545   S
    Zr1    O12       3.46386      .   S
    N9     O13       2.37970  1_545   S
    Zr1    O13       3.46727      .   S
    N14    O15       2.61365      .   S
    Zr1    O15       3.83645      .   S
    N14    O16       2.25672      .   S
    Zr2    O16       3.30445      .   S
    N14    O17       2.34445      .   S
    Zr0    O17       3.59829  1_654   S
    N14    O18       2.37843      .   S
    Zr0    O18       3.54228  1_654   S
    N19    O20       2.53760      .   S
    Zr0    O20       3.76140  1_554   S
    N19    O21       2.46461      .   S
    Zr2    O21       3.63603  1_455   S
    N19    O22       2.46043      .   S
    Zr1    O22       3.63624      .   S
    N19    O23       2.37123      .   S
    Zr3    O23       3.41874  1_545   S
    N19    O24       2.44346      .   S
    Zr1    O24       3.67992      .   S
    N26    O27       2.53789      .   S
    Zr2    O27       3.76182  1_556   S
    N26    O28       2.37034      .   S
    Zr1    O28       3.41747  1_565   S
    N26    O29       2.44347      .   S
    Zr3    O29       3.68073      .   S
    N26    O30       2.46404      .   S
    Zr0    O30       3.63459  1_655   S
    N26    O31       2.46094      .   S
    Zr3    O31       3.63668      .   S
    N32    O33       2.45940      .   S
    Zr2    O33       3.63443  1_456   S
    N32    O34       2.37015      .   S
    Zr0    O34       3.41654      .   S
    N32    O35       2.44271      .   S
    Zr2    O35       3.67771  1_456   S
    N32    O36       2.53745      .   S
    Zr3    O36       3.76078      .   S
    N32    O37       2.46471      .   S
    Zr1    O37       3.63617  1_565   S
    N38    O39       0.50963      .   S
    Zr3    O39       1.52889      .   S
