# CIF file generated by openbabel 2.4.90, see http://openbabel.sf.net
data_I
_chemical_name_common ''
_cell_length_a 22.353
_cell_length_b 16.76
_cell_length_c 18.262
_cell_angle_alpha 62.678
_cell_angle_beta 72.41
_cell_angle_gamma 90.054
_space_group_name_H-M_alt 'P 1'
_space_group_name_Hall 'P 1'
loop_
    _symmetry_equiv_pos_as_xyz
    x,y,z
loop_
    _atom_site_label
    _atom_site_type_symbol
    _atom_site_fract_x
    _atom_site_fract_y
    _atom_site_fract_z
    _atom_site_occupancy
    Mc0     Mc   0.56979   0.58479   0.59775   1.000
    Mc1     Mc   0.63768   0.31793   0.60786   1.000
    Mc2     Mc   0.86881   0.68272   0.40250   1.000
    Mc3     Mc   0.94129   0.42537   0.39333   1.000
    Mc4     Mc   0.36196   0.92534   0.39275   1.000
    Mc5     Mc   0.42959   0.18299   0.40278   1.000
    Mc6     Mc   0.36874   0.68275   0.40260   1.000
    Mc7     Mc   0.44125   0.42552   0.39331   1.000
    Mc8     Mc   0.55829   0.81796   0.60776   1.000
    Mc9     Mc   0.63060   0.08518   0.59846   1.000
    Mc10    Mc   0.05820   0.81799   0.60680   1.000
    Mc11    Mc   0.13050   0.08496   0.59848   1.000
    Mc12    Mc   0.86115   0.92477   0.39309   1.000
    Mc13    Mc   0.92905   0.18265   0.40301   1.000
    Mc14    Mc   0.13779   0.31773   0.60793   1.000
    Mc15    Mc   0.07055   0.58532   0.59765   1.000
