# CIF file generated by openbabel 2.4.90, see http://openbabel.sf.net
data_I
_chemical_name_common ''
_cell_length_a 22.353
_cell_length_b 16.76
_cell_length_c 18.262
_cell_angle_alpha 62.678
_cell_angle_beta 72.41
_cell_angle_gamma 90.054
_space_group_name_H-M_alt 'P 1'
_space_group_name_Hall 'P 1'
loop_
    _symmetry_equiv_pos_as_xyz
    x,y,z
loop_
    _atom_site_label
    _atom_site_type_symbol
    _atom_site_fract_x
    _atom_site_fract_y
    _atom_site_fract_z
    _atom_site_occupancy
    H0      H    0.37843   0.49342   0.69519   1.000
    H1      H    0.87829   0.49360   0.69503   1.000
    H2      H    0.36045   0.29970   0.96090   1.000
    H3      H    0.86015   0.29983   0.96081   1.000
    H4      H    0.31839   0.56792   0.89990   1.000
    H5      H    0.81747   0.56777   0.89991   1.000
    H6      H    0.47583   0.00000   0.63385   1.000
    H7      H    0.97455   0.00000   0.63468   1.000
    H8      H    0.38098   0.85842   0.74814   1.000
    H9      H    0.87939   0.85807   0.74886   1.000
    H10     H    0.12134   0.18796   0.30537   1.000
    H11     H    0.62127   0.18770   0.30540   1.000
    H12     H    0.13965   0.25982   0.03960   1.000
    H13     H    0.63970   0.25961   0.03967   1.000
    H14     H    0.18249   0.46708   0.10027   1.000
    H15     H    0.68176   0.46698   0.10059   1.000
    H16     H    0.02492   0.64309   0.36596   1.000
    H17     H    0.52448   0.64275   0.36579   1.000
    H18     H    0.11951   0.60608   0.25200   1.000
    H19     H    0.61941   0.60609   0.25190   1.000
    H20     H    0.27515   0.99340   0.69550   1.000
    H21     H    0.77457   0.99299   0.69572   1.000
    H22     H    0.16012   0.79977   0.96046   1.000
    H23     H    0.65979   0.79955   0.96090   1.000
    H24     H    0.23231   0.06787   0.90034   1.000
    H25     H    0.73240   0.06760   0.90043   1.000
    H26     H    0.20801   0.50909   0.63397   1.000
    H27     H    0.70807   0.50913   0.63380   1.000
    H28     H    0.24617   0.35838   0.74844   1.000
    H29     H    0.74609   0.35828   0.74839   1.000
    H30     H    0.22465   0.68827   0.30525   1.000
    H31     H    0.72466   0.68809   0.30527   1.000
    H32     H    0.34004   0.76036   0.04033   1.000
    H33     H    0.84000   0.76030   0.04029   1.000
    H34     H    0.26766   0.96789   0.10069   1.000
    H35     H    0.76768   0.96776   0.10083   1.000
    H36     H    0.29137   0.14310   0.36729   1.000
    H37     H    0.79138   0.14308   0.36718   1.000
    H38     H    0.25363   0.10653   0.25268   1.000
    H39     H    0.75359   0.10632   0.25271   1.000
    C40     C    0.26470   0.39604   0.67738   1.000
    C41     C    0.76465   0.39594   0.67734   1.000
    C42     C    0.32594   0.43387   0.54370   1.000
    C43     C    0.82592   0.43373   0.54372   1.000
    C44     C    0.36786   0.47650   0.76330   1.000
    C45     C    0.86759   0.47663   0.76321   1.000
    C46     C    0.37270   0.38959   0.82430   1.000
    C47     C    0.87248   0.38973   0.82424   1.000
    C48     C    0.35808   0.36770   0.91258   1.000
    C49     C    0.85774   0.36781   0.91240   1.000
    C50     C    0.34016   0.43283   0.93910   1.000
    C51     C    0.83961   0.43285   0.93904   1.000
    C52     C    0.33388   0.51873   0.87786   1.000
    C53     C    0.83319   0.51867   0.87783   1.000
    C54     C    0.34695   0.54049   0.79030   1.000
    C55     C    0.84638   0.54048   0.79024   1.000
    C56     C    0.44473   0.97106   0.62140   1.000
    C57     C    0.94340   0.97043   0.62210   1.000
    C58     C    0.39768   0.89613   0.67708   1.000
    C59     C    0.89617   0.89570   0.67780   1.000
    C60     C    0.40269   0.93397   0.54336   1.000
    C61     C    0.90134   0.93351   0.54405   1.000
    C62     C    0.13211   0.23917   0.23715   1.000
    C63     C    0.63196   0.23893   0.23728   1.000
    C64     C    0.12722   0.21324   0.17617   1.000
    C65     C    0.62722   0.21300   0.17620   1.000
    C66     C    0.14207   0.27955   0.08780   1.000
    C67     C    0.64201   0.27932   0.08799   1.000
    C68     C    0.16031   0.37122   0.06120   1.000
    C69     C    0.66002   0.37102   0.06142   1.000
    C70     C    0.16671   0.39587   0.12230   1.000
    C71     C    0.66621   0.39571   0.12267   1.000
    C72     C    0.15341   0.33011   0.21003   1.000
    C73     C    0.65297   0.32991   0.21029   1.000
    C74     C    0.05582   0.59225   0.37860   1.000
    C75     C    0.55547   0.59202   0.37840   1.000
    C76     C    0.10273   0.57275   0.32309   1.000
    C77     C    0.60255   0.57270   0.32296   1.000
    C78     C    0.09745   0.47683   0.45693   1.000
    C79     C    0.59719   0.47676   0.45684   1.000
    C80     C    0.25156   0.97647   0.76356   1.000
    C81     C    0.75114   0.97609   0.76380   1.000
    C82     C    0.21632   0.88956   0.82428   1.000
    C83     C    0.71584   0.88924   0.82463   1.000
    C84     C    0.18663   0.86773   0.91234   1.000
    C85     C    0.68635   0.86746   0.91271   1.000
    C86     C    0.19100   0.93287   0.93900   1.000
    C87     C    0.69091   0.93263   0.93929   1.000
    C88     C    0.22794   0.01869   0.87818   1.000
    C89     C    0.72790   0.01840   0.87834   1.000
    C90     C    0.25881   0.04042   0.79075   1.000
    C91     C    0.75865   0.04006   0.79089   1.000
    C92     C    0.24526   0.47092   0.62160   1.000
    C93     C    0.74529   0.47090   0.62153   1.000
    C94     C    0.24830   0.73956   0.23723   1.000
    C95     C    0.74831   0.73940   0.23726   1.000
    C96     C    0.28362   0.71359   0.17647   1.000
    C97     C    0.78361   0.71345   0.17646   1.000
    C98     C    0.31343   0.78002   0.08848   1.000
    C99     C    0.81342   0.77992   0.08848   1.000
    C100    C    0.30906   0.87182   0.06189   1.000
    C101    C    0.80907   0.87173   0.06196   1.000
    C102    C    0.27203   0.89656   0.12277   1.000
    C103    C    0.77205   0.89643   0.12288   1.000
    C104    C    0.24107   0.83067   0.21014   1.000
    C105    C    0.74110   0.83050   0.21020   1.000
    C106    C    0.25422   0.09238   0.37958   1.000
    C107    C    0.75420   0.09236   0.37954   1.000
    C108    C    0.23499   0.07312   0.32373   1.000
    C109    C    0.73495   0.07300   0.32376   1.000
    C110    C    0.17363   0.97712   0.45731   1.000
    C111    C    0.67357   0.97714   0.45737   1.000
    N112    N    0.44796   0.99475   0.53694   1.000
    N113    N    0.94673   0.99412   0.53760   1.000
    N114    N    0.37223   0.87391   0.62803   1.000
    N115    N    0.87068   0.87359   0.62871   1.000
    N116    N    0.05242   0.53147   0.46314   1.000
    N117    N    0.55202   0.53121   0.46300   1.000
    N118    N    0.12793   0.50129   0.37232   1.000
    N119    N    0.62780   0.50134   0.37223   1.000
    N120    N    0.28388   0.49461   0.53719   1.000
    N121    N    0.78392   0.49456   0.53714   1.000
    N122    N    0.31444   0.37384   0.62840   1.000
    N123    N    0.81437   0.37367   0.62844   1.000
    N124    N    0.21552   0.03156   0.46390   1.000
    N125    N    0.71549   0.03164   0.46394   1.000
    N126    N    0.18529   0.00000   0.37258   1.000
    N127    N    0.68523   0.00000   0.37267   1.000
loop_
    _geom_bond_atom_site_label_1
    _geom_bond_atom_site_label_2
    _geom_bond_distance
    _geom_bond_site_symmetry_2
    _ccdc_geom_bond_type
    H12    C66       1.08760      .   S
    H13    C67       1.08895      .   S
    H33    C99       1.08895      .   S
    H32    C98       1.08896      .   S
    C68    C66       1.39887      .   S
    C68    C70       1.39851      .   S
    C69    C67       1.39841      .   S
    C69    C71       1.40002      .   S
    C100   C98       1.39848      .   S
    C100   C102      1.40029      .   S
    C101   C99       1.39861      .   S
    C101   C103      1.40031      .   S
    C66    C64       1.40670      .   S
    C67    C65       1.40482      .   S
    C99    C97       1.40531      .   S
    C98    C96       1.40529      .   S
    H14    C70       1.08781      .   S
    H15    C71       1.08745      .   S
    H34    C102      1.08757      .   S
    H35    C103      1.08756      .   S
    C70    C72       1.40018      .   S
    C71    C73       1.39909      .   S
    C102   C104      1.39928      .   S
    C103   C105      1.39887      .   S
    C64    C62       1.39962      .   S
    C65    C63       1.40034      .   S
    C97    C95       1.39963      .   S
    C96    C94       1.39956      .   S
    C72    C62       1.39920      .   S
    C104   C94       1.39915      .   S
    C105   C95       1.39904      .   S
    C73    C63       1.39910      .   S
    C62    H10       1.08787      .   S
    C94    H30       1.08784      .   S
    C95    H31       1.08786      .   S
    C63    H11       1.08686      .   S
    H19    C77       1.08470      .   S
    H18    C76       1.08524      .   S
    H38    C108      1.08468      .   S
    H39    C109      1.08474      .   S
    C77    N119      1.37071      .   S
    C77    C75       1.37664      .   S
    C76    N118      1.37074      .   S
    C76    C74       1.37710      .   S
    C108   N126      1.38803      .   S
    C108   C106      1.37709      .   S
    C109   N127      1.38714      .   S
    C109   C107      1.37701      .   S
    H17    C75       1.08324      .   S
    H16    C74       1.08326      .   S
    H37    C107      1.08325      .   S
    H36    C106      1.08331      .   S
    N119   C79       1.34221      .   S
    N118   C78       1.34219      .   S
    N126   C110      1.34929  1_545   S
    N127   C111      1.34888  1_545   S
    C75    N117      1.38345      .   S
    C74    N116      1.38288      .   S
    C107   N125      1.38291      .   S
    C106   N124      1.38232      .   S
    C79    N117      1.37564      .   S
    C78    N116      1.37568      .   S
    C110   N124      1.37528  1_565   S
    C111   N125      1.37595  1_565   S
    N112   C60       1.37557      .   S
    N112   C56       1.38285      .   S
    N121   C43       1.37571      .   S
    N121   C93       1.38277      .   S
    N120   C42       1.37576      .   S
    N120   C92       1.38286      .   S
    N113   C61       1.37530      .   S
    N113   C57       1.38292      .   S
    C60    N114      1.34218      .   S
    C42    N122      1.34220      .   S
    C43    N123      1.34241      .   S
    C61    N115      1.34220      .   S
    C56    H6        0.98290  1_565   S
    C56    C58       1.37705      .   S
    C93    H27       1.08301      .   S
    C93    C41       1.37714      .   S
    C92    H26       1.08330      .   S
    C92    C40       1.37708      .   S
    C57    H7        0.99194  1_565   S
    C57    C59       1.37720      .   S
    N114   C58       1.37065      .   S
    N122   C40       1.37121      .   S
    N123   C41       1.37075      .   S
    N115   C59       1.37079      .   S
    C58    H8        1.08475      .   S
    C41    H29       1.08462      .   S
    C40    H28       1.08476      .   S
    C59    H9        1.08468      .   S
    H1     C45       1.08775      .   S
    H0     C44       1.08709      .   S
    H20    C80       1.08779      .   S
    H21    C81       1.08774      .   S
    C45    C55       1.39929      .   S
    C45    C47       1.39980      .   S
    C44    C54       1.39960      .   S
    C44    C46       1.39928      .   S
    C80    C90       1.39942  1_565   S
    C80    C82       1.39964      .   S
    C81    C91       1.39956  1_565   S
    C81    C83       1.39979      .   S
    C55    C53       1.39899      .   S
    C54    C52       1.39904      .   S
    C90    C88       1.39927      .   S
    C91    C89       1.39946      .   S
    C47    C49       1.40420      .   S
    C82    C84       1.40526      .   S
    C46    C48       1.40676      .   S
    C83    C85       1.40528      .   S
    C53    H5        1.08752      .   S
    C53    C51       1.40004      .   S
    C52    H4        1.08742      .   S
    C52    C50       1.40006      .   S
    C88    H24       1.08753      .   S
    C88    C86       1.40043  1_545   S
    C89    H25       1.08748      .   S
    C89    C87       1.40055  1_545   S
    C84    C86       1.39815      .   S
    C84    H22       1.08896      .   S
    C49    C51       1.39921      .   S
    C49    H3        1.08941      .   S
    C48    C50       1.39834      .   S
    C48    H2        1.08891      .   S
    C85    C87       1.39832      .   S
    C85    H23       1.08894      .   S
