# CIF file generated by openbabel 2.4.90, see http://openbabel.sf.net
data_I
_chemical_name_common ''
_cell_length_a 22.353
_cell_length_b 16.76
_cell_length_c 18.262
_cell_angle_alpha 62.678
_cell_angle_beta 72.41
_cell_angle_gamma 90.054
_space_group_name_H-M_alt 'P 1'
_space_group_name_Hall 'P 1'
loop_
    _symmetry_equiv_pos_as_xyz
    x,y,z
loop_
    _atom_site_label
    _atom_site_type_symbol
    _atom_site_fract_x
    _atom_site_fract_y
    _atom_site_fract_z
    _atom_site_occupancy
    Lv0     Lv   0.58270   0.56041   0.37302   1.000
    Lv1     Lv   0.76976   0.43375   0.62719   1.000
    Lv2     Lv   0.14726   0.30489   0.14888   1.000
    Lv3     Lv   0.85254   0.45415   0.85141   1.000
    Lv4     Lv   0.41744   0.93261   0.62697   1.000
    Lv5     Lv   0.26977   0.43382   0.62724   1.000
    Lv6     Lv   0.72977   0.06051   0.37388   1.000
    Lv7     Lv   0.22981   0.06054   0.37387   1.000
    Lv8     Lv   0.91604   0.93220   0.62769   1.000
    Lv9     Lv   0.72195   0.95378   0.85186   1.000
    Lv10    Lv   0.08297   0.56054   0.37315   1.000
    Lv11    Lv   0.77777   0.80529   0.14929   1.000
    Lv12    Lv   0.27776   0.80542   0.14925   1.000
    Lv13    Lv   0.64701   0.30469   0.14906   1.000
    Lv14    Lv   0.22220   0.95409   0.85160   1.000
    Lv15    Lv   0.35299   0.45410   0.85149   1.000
