# CIF file generated by openbabel 2.4.90, see http://openbabel.sf.net
data_I
_chemical_name_common ''
_cell_length_a 22.353
_cell_length_b 16.76
_cell_length_c 18.262
_cell_angle_alpha 62.678
_cell_angle_beta 72.41
_cell_angle_gamma 90.054
_space_group_name_H-M_alt 'P 1'
_space_group_name_Hall 'P 1'
loop_
    _symmetry_equiv_pos_as_xyz
    x,y,z
loop_
    _atom_site_label
    _atom_site_type_symbol
    _atom_site_fract_x
    _atom_site_fract_y
    _atom_site_fract_z
    _atom_site_occupancy
    H0      H    0.46457   0.01702   0.35954   1.000
    H1      H    0.96368   0.01618   0.36043   1.000
    H2      H    0.41974   0.00000   0.25779   1.000
    H3      H    0.91934   0.00000   0.25830   1.000
    H4      H    0.31337   0.90050   0.31929   1.000
    H5      H    0.81293   0.89970   0.31943   1.000
    H6      H    0.26007   0.81648   0.48209   1.000
    H7      H    0.75909   0.81616   0.48208   1.000
    H8      H    0.01662   0.10582   0.48200   1.000
    H9      H    0.51757   0.10681   0.48110   1.000
    H10     H    0.01586   0.06347   0.41011   1.000
    H11     H    0.51675   0.06447   0.40922   1.000
    H12     H    0.49789   0.18849   0.28718   1.000
    H13     H    0.99736   0.18770   0.28761   1.000
    H14     H    0.42952   0.30113   0.22775   1.000
    H15     H    0.92929   0.30064   0.22774   1.000
    H16     H    0.31609   0.23691   0.49059   1.000
    H17     H    0.81581   0.23739   0.49027   1.000
    H18     H    0.38250   0.12652   0.54961   1.000
    H19     H    0.88187   0.12667   0.54971   1.000
    H20     H    0.03539   0.37635   0.64072   1.000
    H21     H    0.53517   0.37630   0.64060   1.000
    H22     H    0.07996   0.25918   0.74282   1.000
    H23     H    0.57987   0.25940   0.74277   1.000
    H24     H    0.18615   0.21928   0.68173   1.000
    H25     H    0.68614   0.21967   0.68168   1.000
    H26     H    0.23955   0.29762   0.51895   1.000
    H27     H    0.73951   0.29798   0.51889   1.000
    H28     H    0.48233   0.58737   0.51850   1.000
    H29     H    0.98289   0.58782   0.51866   1.000
    H30     H    0.48284   0.47300   0.59044   1.000
    H31     H    0.98334   0.47347   0.59067   1.000
    H32     H    0.00211   0.47500   0.71300   1.000
    H33     H    0.50123   0.47448   0.71297   1.000
    H34     H    0.07035   0.52794   0.77292   1.000
    H35     H    0.56917   0.52741   0.77318   1.000
    H36     H    0.18410   0.72712   0.51033   1.000
    H37     H    0.68338   0.72647   0.51079   1.000
    H38     H    0.11784   0.67598   0.45094   1.000
    H39     H    0.61735   0.67545   0.45104   1.000
    H40     H    0.35528   0.51717   0.35989   1.000
    H41     H    0.85531   0.51697   0.35985   1.000
    H42     H    0.45052   0.50190   0.25826   1.000
    H43     H    0.95059   0.50170   0.25820   1.000
    H44     H    0.02630   0.40050   0.32006   1.000
    H45     H    0.52620   0.40062   0.31997   1.000
    H46     H    0.99868   0.31613   0.48292   1.000
    H47     H    0.49863   0.31621   0.48283   1.000
    H48     H    0.24195   0.60657   0.48127   1.000
    H49     H    0.74203   0.60655   0.48117   1.000
    H50     H    0.27811   0.56403   0.40951   1.000
    H51     H    0.77818   0.56398   0.40944   1.000
    H52     H    0.35738   0.68803   0.28716   1.000
    H53     H    0.85749   0.68786   0.28709   1.000
    H54     H    0.45535   0.80056   0.22743   1.000
    H55     H    0.95544   0.80044   0.22732   1.000
    H56     H    0.43916   0.73692   0.49004   1.000
    H57     H    0.93917   0.73703   0.48991   1.000
    H58     H    0.34334   0.62671   0.54934   1.000
    H59     H    0.84339   0.62675   0.54924   1.000
    H60     H    0.14423   0.87633   0.64114   1.000
    H61     H    0.64406   0.87669   0.64128   1.000
    H62     H    0.04898   0.75914   0.74269   1.000
    H63     H    0.54890   0.75939   0.74284   1.000
    H64     H    0.47340   0.71940   0.68105   1.000
    H65     H    0.97327   0.71961   0.68080   1.000
    H66     H    0.50110   0.79776   0.51819   1.000
    H67     H    0.00000   0.79821   0.51000   1.000
    H68     H    0.25724   0.08781   0.51996   1.000
    H69     H    0.75732   0.08789   0.51984   1.000
    H70     H    0.22117   0.97336   0.59100   1.000
    H71     H    0.72116   0.97347   0.59165   1.000
    C72     C    0.37859   0.42971   0.47569   1.000
    H73     H    0.14186   0.97482   0.71400   1.000
    H74     H    0.64192   0.97495   0.71390   1.000
    H75     H    0.04400   0.02759   0.77371   1.000
    H76     H    0.54411   0.02780   0.77364   1.000
    H77     H    0.06007   0.22636   0.51104   1.000
    H78     H    0.56026   0.22672   0.51099   1.000
    H79     H    0.15578   0.17548   0.45175   1.000
    H80     H    0.65593   0.17577   0.45169   1.000
    C81     C    0.38378   0.92980   0.47520   1.000
    C82     C    0.88262   0.92925   0.47581   1.000
    C83     C    0.41810   0.97608   0.38517   1.000
    C84     C    0.91721   0.97532   0.38586   1.000
    C85     C    0.39305   0.96645   0.32790   1.000
    C86     C    0.89243   0.96560   0.32841   1.000
    C87     C    0.33482   0.91043   0.36123   1.000
    C88     C    0.83418   0.90971   0.36152   1.000
    C89     C    0.30439   0.86374   0.45166   1.000
    C90     C    0.80346   0.86325   0.45100   1.000
    C91     C    0.48590   0.07960   0.45918   1.000
    C92     C    0.98496   0.07880   0.45989   1.000
    C93     C    0.44468   0.14839   0.42249   1.000
    C94     C    0.94405   0.14796   0.42281   1.000
    C95     C    0.45773   0.19882   0.33181   1.000
    C96     C    0.95724   0.19829   0.33209   1.000
    C97     C    0.41978   0.26225   0.29815   1.000
    C98     C    0.91946   0.26192   0.29817   1.000
    C99     C    0.36780   0.27619   0.35477   1.000
    C100    C    0.86753   0.27619   0.35458   1.000
    C101    C    0.35521   0.22615   0.44536   1.000
    C102    C    0.85488   0.22636   0.44520   1.000
    C103    C    0.39329   0.16319   0.47887   1.000
    C104    C    0.89276   0.16319   0.47896   1.000
    C105    C    0.11617   0.40444   0.52525   1.000
    C106    C    0.61597   0.40449   0.52518   1.000
    C107    C    0.08178   0.36090   0.61525   1.000
    C108    C    0.58160   0.36096   0.61519   1.000
    C109    C    0.10669   0.29402   0.67272   1.000
    C110    C    0.60658   0.29422   0.67267   1.000
    C111    C    0.16482   0.27113   0.63960   1.000
    C112    C    0.66476   0.27143   0.63955   1.000
    C113    C    0.19529   0.31463   0.54919   1.000
    C114    C    0.69522   0.31490   0.54914   1.000
    C115    C    0.01440   0.53853   0.54083   1.000
    C116    C    0.51383   0.53812   0.54068   1.000
    C117    C    0.05550   0.57044   0.57787   1.000
    C118    C    0.55481   0.56998   0.57787   1.000
    C119    C    0.04233   0.53003   0.66858   1.000
    C120    C    0.54146   0.52951   0.66862   1.000
    C121    C    0.08021   0.55967   0.70240   1.000
    C122    C    0.57917   0.55911   0.70272   1.000
    C123    C    0.13226   0.63033   0.64606   1.000
    C124    C    0.63124   0.62974   0.64642   1.000
    C125    C    0.14492   0.67109   0.55543   1.000
    C126    C    0.64415   0.67048   0.55575   1.000
    C127    C    0.10693   0.64174   0.52170   1.000
    C128    C    0.60630   0.64121   0.52182   1.000
    C129    C    0.87859   0.42956   0.47569   1.000
    C130    C    0.38897   0.47617   0.38560   1.000
    C131    C    0.88899   0.47599   0.38560   1.000
    C132    C    0.44239   0.46663   0.32841   1.000
    C133    C    0.94243   0.46645   0.32843   1.000
    C134    C    0.48398   0.41048   0.36187   1.000
    C135    C    0.98403   0.41033   0.36193   1.000
    C136    C    0.46949   0.36358   0.45233   1.000
    C137    C    0.96951   0.36347   0.45240   1.000
    C138    C    0.28439   0.57932   0.45934   1.000
    C139    C    0.78446   0.57928   0.45920   1.000
    C140    C    0.34384   0.64820   0.42239   1.000
    C141    C    0.84391   0.64814   0.42230   1.000
    C142    C    0.37559   0.69846   0.33169   1.000
    C143    C    0.87569   0.69835   0.33160   1.000
    C144    C    0.43032   0.76184   0.29784   1.000
    C145    C    0.93040   0.76175   0.29774   1.000
    C146    C    0.45448   0.77589   0.35431   1.000
    C147    C    0.95454   0.77589   0.35418   1.000
    C148    C    0.42227   0.72608   0.44492   1.000
    C149    C    0.92231   0.72613   0.44480   1.000
    C150    C    0.36749   0.66320   0.47860   1.000
    C151    C    0.86755   0.66320   0.47850   1.000
    C152    C    0.12098   0.90472   0.52530   1.000
    C153    C    0.62093   0.90474   0.52541   1.000
    C154    C    0.11056   0.86101   0.61539   1.000
    C155    C    0.61047   0.86120   0.61551   1.000
    C156    C    0.05713   0.79412   0.67253   1.000
    C157    C    0.55708   0.79425   0.67268   1.000
    C158    C    0.01555   0.77143   0.63900   1.000
    C159    C    0.51560   0.77131   0.63918   1.000
    C160    C    0.03009   0.81509   0.54853   1.000
    C161    C    0.53016   0.81483   0.54870   1.000
    C162    C    0.21486   0.03845   0.54184   1.000
    C163    C    0.71489   0.03857   0.54177   1.000
    C164    C    0.15536   0.07015   0.57874   1.000
    C165    C    0.65545   0.07036   0.57867   1.000
    C166    C    0.12365   0.02973   0.66945   1.000
    C167    C    0.62374   0.02992   0.66938   1.000
    C168    C    0.06899   0.05924   0.70328   1.000
    C169    C    0.56911   0.05948   0.70321   1.000
    C170    C    0.04484   0.12974   0.64680   1.000
    C171    C    0.54500   0.13003   0.64673   1.000
    C172    C    0.07697   0.17045   0.55617   1.000
    C173    C    0.57714   0.17078   0.55611   1.000
    C174    C    0.13168   0.14125   0.52250   1.000
    C175    C    0.63182   0.14154   0.52244   1.000
    N176    N    0.32773   0.87292   0.50763   1.000
    N177    N    0.82653   0.87249   0.50806   1.000
    N178    N    0.17211   0.37977   0.49302   1.000
    N179    N    0.67197   0.37993   0.49298   1.000
    N180    N    0.41845   0.37269   0.50825   1.000
    N181    N    0.91844   0.37256   0.50820   1.000
    N182    N    0.08117   0.88020   0.49266   1.000
    N183    N    0.58120   0.88001   0.49281   1.000
loop_
    _geom_bond_atom_site_label_1
    _geom_bond_atom_site_label_2
    _geom_bond_distance
    _geom_bond_site_symmetry_2
    _ccdc_geom_bond_type
    H55    C145      1.08919      .   S
    H54    C144      1.08906      .   S
    H15    C98       1.08924      .   S
    H14    C97       1.08922      .   S
    H2     C85       1.09005  1_545   S
    H43    C133      1.09092      .   S
    H42    C132      1.08974      .   S
    H3     C86       1.09074  1_545   S
    H53    C143      1.08987      .   S
    H52    C142      1.08997      .   S
    H12    C95       1.08989      .   S
    H13    C96       1.09000      .   S
    C145   C143      1.39449      .   S
    C145   C147      1.40350      .   S
    C144   C142      1.39444      .   S
    C144   C146      1.40364      .   S
    C97    C95       1.39437      .   S
    C97    C99       1.40351      .   S
    C98    C96       1.39475      .   S
    C98    C100      1.40359      .   S
    H4     C87       1.08763      .   S
    H5     C88       1.08781      .   S
    H45    C134      1.08775      .   S
    H44    C135      1.08811  1_455   S
    C85    C87       1.39298      .   S
    C85    C83       1.39377      .   S
    C86    C88       1.39296      .   S
    C86    C84       1.39367      .   S
    C132   C134      1.39298      .   S
    C132   C130      1.39358      .   S
    C133   C135      1.39302      .   S
    C133   C131      1.39370      .   S
    C143   C141      1.40157      .   S
    C142   C140      1.40157      .   S
    C95    C93       1.40163      .   S
    C96    C94       1.40166      .   S
    C147   C149      1.40160      .   S
    C146   C148      1.40146      .   S
    C100   C102      1.40147      .   S
    C99    C101      1.40139      .   S
    H0     C83       1.08563  1_545   S
    H41    C131      1.08547      .   S
    H40    C130      1.08539      .   S
    H1     C84       1.08564  1_545   S
    C87    C89       1.39140      .   S
    C88    C90       1.37870      .   S
    C134   C136      1.39137      .   S
    C135   C137      1.39145      .   S
    C83    C81       1.39972      .   S
    C130   C72       1.39996      .   S
    C131   C129      1.39985      .   S
    C84    C82       1.39975      .   S
    H11    C91       1.09758      .   S
    H51    C139      1.09649      .   S
    H50    C138      1.09769      .   S
    H10    C92       1.09772  1_455   S
    C141   C139      1.51464      .   S
    C141   C151      1.40051      .   S
    C140   C138      1.51445      .   S
    C140   C150      1.40034      .   S
    C93    C91       1.51433      .   S
    C93    C103      1.40049      .   S
    C94    C92       1.51459      .   S
    C94    C104      1.40045      .   S
    C149   C151      1.39145      .   S
    C149   H57       1.08613      .   S
    C148   C150      1.39147      .   S
    C148   H56       1.08611      .   S
    C102   C104      1.39146      .   S
    C102   H17       1.08618      .   S
    C101   C103      1.39152      .   S
    C101   H16       1.08627      .   S
    H38    C127      1.08956      .   S
    C90    H7        1.08437      .   S
    C90    N177      1.35959      .   S
    H39    C128      1.08947      .   S
    C89    H6        1.08594      .   S
    C89    N176      1.34427      .   S
    H80    C175      1.08950      .   S
    H79    C174      1.08949      .   S
    C136   H47       1.08595      .   S
    C136   N180      1.34434      .   S
    C137   H46       1.08624      .   S
    C137   N181      1.34339      .   S
    C91    H9        1.09885      .   S
    C139   H49       1.09943      .   S
    C138   H48       1.09909      .   S
    C92    H8        1.09951  1_655   S
    C81    N176      1.36400      .   S
    C129   N181      1.36346      .   S
    C72    N180      1.36399      .   S
    C82    N177      1.36410      .   S
    C151   H59       1.08947      .   S
    C150   H58       1.08946      .   S
    C103   H18       1.08964      .   S
    C104   H19       1.08946      .   S
    N182   C152      1.36401      .   S
    N182   C160      1.34431      .   S
    N183   C153      1.36397      .   S
    N183   C161      1.34426      .   S
    N179   C106      1.36400      .   S
    N179   C114      1.34423      .   S
    N178   C105      1.36398      .   S
    N178   C113      1.34432      .   S
    H67    C160      1.22307      .   S
    H36    C125      1.08612      .   S
    H37    C126      1.08609      .   S
    H78    C173      1.08615      .   S
    H77    C172      1.08619      .   S
    H66    C161      1.08586      .   S
    H28    C116      1.09907      .   S
    H29    C115      1.09946  1_655   S
    H27    C114      1.08601      .   S
    H26    C113      1.08600      .   S
    H69    C163      1.09910      .   S
    H68    C162      1.09912      .   S
    C127   C125      1.39142      .   S
    C127   C117      1.40041      .   S
    C128   C126      1.39129      .   S
    C128   C118      1.40041      .   S
    C175   C173      1.39141      .   S
    C175   C165      1.40032      .   S
    C174   C172      1.39145      .   S
    C174   C164      1.40042      .   S
    C106   C108      1.39971      .   S
    C105   C107      1.39967      .   S
    C152   C154      1.39978      .   S
    C153   C155      1.39979      .   S
    C116   C118      1.51435      .   S
    C116   H30       1.09753      .   S
    C115   C117      1.51472      .   S
    C115   H31       1.09777  1_455   S
    C163   C165      1.51434      .   S
    C163   H71       1.09769  1_545   S
    C162   C164      1.51444      .   S
    C162   H70       1.09262  1_545   S
    C160   C158      1.39138      .   S
    C161   C159      1.39151      .   S
    C114   C112      1.39132      .   S
    C113   C111      1.39137      .   S
    C125   C123      1.40166      .   S
    C126   C124      1.40148      .   S
    C173   C171      1.40149      .   S
    C172   C170      1.40163      .   S
    C118   C120      1.40160      .   S
    C117   C119      1.40157      .   S
    C165   C167      1.40168      .   S
    C164   C166      1.40169      .   S
    C108   H21       1.08513      .   S
    C108   C110      1.39376      .   S
    C107   H20       1.08550      .   S
    C107   C109      1.39369      .   S
    C154   H60       1.08546      .   S
    C154   C156      1.39366      .   S
    C155   H61       1.08542      .   S
    C155   C157      1.39363      .   S
    C158   C156      1.39305      .   S
    C158   H65       1.08802  1_455   S
    C159   C157      1.39292      .   S
    C159   H64       1.08770      .   S
    C112   C110      1.39300      .   S
    C112   H25       1.08775      .   S
    C111   C109      1.39295      .   S
    C111   H24       1.08774      .   S
    C123   C121      1.40352      .   S
    C124   C122      1.40345      .   S
    C171   C169      1.40353      .   S
    C170   C168      1.40353      .   S
    C119   C121      1.39365      .   S
    C119   H32       1.08985      .   S
    C120   C122      1.39453      .   S
    C120   H33       1.08982      .   S
    C167   C169      1.39441      .   S
    C167   H74       1.08994  1_545   S
    C166   C168      1.39451      .   S
    C166   H73       1.09010  1_545   S
    C156   H62       1.08981      .   S
    C110   H23       1.08972      .   S
    C157   H63       1.08969      .   S
    C109   H22       1.08978      .   S
    C121   H34       1.09062      .   S
    C122   H35       1.08918      .   S
    C169   H76       1.08932      .   S
    C168   H75       1.08927      .   S
