# CIF file generated by openbabel 2.4.90, see http://openbabel.sf.net
data_I
_chemical_name_common ''
_cell_length_a 22.353
_cell_length_b 16.76
_cell_length_c 18.262
_cell_angle_alpha 62.678
_cell_angle_beta 72.41
_cell_angle_gamma 90.054
_space_group_name_H-M_alt 'P 1'
_space_group_name_Hall 'P 1'
loop_
    _symmetry_equiv_pos_as_xyz
    x,y,z
loop_
    _atom_site_label
    _atom_site_type_symbol
    _atom_site_fract_x
    _atom_site_fract_y
    _atom_site_fract_z
    _atom_site_occupancy
    H0      H    0.37843   0.49342   0.69519   1.000
    H1      H    0.87829   0.49360   0.69503   1.000
    H2      H    0.36045   0.29970   0.96090   1.000
    H3      H    0.86015   0.29983   0.96081   1.000
    H4      H    0.31839   0.56792   0.89990   1.000
    H5      H    0.81747   0.56777   0.89991   1.000
    H6      H    0.47583   0.00000   0.63385   1.000
    H7      H    0.97455   0.00000   0.63468   1.000
    H8      H    0.38098   0.85842   0.74814   1.000
    H9      H    0.87939   0.85807   0.74886   1.000
    H10     H    0.46457   0.01702   0.35954   1.000
    H11     H    0.96368   0.01618   0.36043   1.000
    H12     H    0.41974   0.00000   0.25779   1.000
    H13     H    0.91934   0.00000   0.25830   1.000
    H14     H    0.31337   0.90050   0.31929   1.000
    H15     H    0.81293   0.89970   0.31943   1.000
    H16     H    0.26007   0.81648   0.48209   1.000
    H17     H    0.75909   0.81616   0.48208   1.000
    H18     H    0.01662   0.10582   0.48200   1.000
    H19     H    0.51757   0.10681   0.48110   1.000
    H20     H    0.01586   0.06347   0.41011   1.000
    H21     H    0.51675   0.06447   0.40922   1.000
    H22     H    0.49789   0.18849   0.28718   1.000
    H23     H    0.99736   0.18770   0.28761   1.000
    H24     H    0.42952   0.30113   0.22775   1.000
    H25     H    0.92929   0.30064   0.22774   1.000
    H26     H    0.31609   0.23691   0.49059   1.000
    H27     H    0.81581   0.23739   0.49027   1.000
    H28     H    0.38250   0.12652   0.54961   1.000
    H29     H    0.88187   0.12667   0.54971   1.000
    H30     H    0.12134   0.18796   0.30537   1.000
    H31     H    0.62127   0.18770   0.30540   1.000
    H32     H    0.13965   0.25982   0.03960   1.000
    H33     H    0.63970   0.25961   0.03967   1.000
    H34     H    0.18249   0.46708   0.10027   1.000
    H35     H    0.68176   0.46698   0.10059   1.000
    H36     H    0.02492   0.64309   0.36596   1.000
    H37     H    0.52448   0.64275   0.36579   1.000
    H38     H    0.11951   0.60608   0.25200   1.000
    H39     H    0.61941   0.60609   0.25190   1.000
    H40     H    0.03539   0.37635   0.64072   1.000
    H41     H    0.53517   0.37630   0.64060   1.000
    H42     H    0.07996   0.25918   0.74282   1.000
    H43     H    0.57987   0.25940   0.74277   1.000
    H44     H    0.18615   0.21928   0.68173   1.000
    H45     H    0.68614   0.21967   0.68168   1.000
    H46     H    0.23955   0.29762   0.51895   1.000
    H47     H    0.73951   0.29798   0.51889   1.000
    H48     H    0.48233   0.58737   0.51850   1.000
    H49     H    0.98289   0.58782   0.51866   1.000
    H50     H    0.48284   0.47300   0.59044   1.000
    H51     H    0.98334   0.47347   0.59067   1.000
    H52     H    0.00211   0.47500   0.71300   1.000
    H53     H    0.50123   0.47448   0.71297   1.000
    H54     H    0.07035   0.52794   0.77292   1.000
    H55     H    0.56917   0.52741   0.77318   1.000
    H56     H    0.18410   0.72712   0.51033   1.000
    H57     H    0.68338   0.72647   0.51079   1.000
    H58     H    0.11784   0.67598   0.45094   1.000
    H59     H    0.61735   0.67545   0.45104   1.000
    H60     H    0.27515   0.99340   0.69550   1.000
    H61     H    0.77457   0.99299   0.69572   1.000
    H62     H    0.16012   0.79977   0.96046   1.000
    H63     H    0.65979   0.79955   0.96090   1.000
    H64     H    0.23231   0.06787   0.90034   1.000
    H65     H    0.73240   0.06760   0.90043   1.000
    H66     H    0.20801   0.50909   0.63397   1.000
    H67     H    0.70807   0.50913   0.63380   1.000
    H68     H    0.24617   0.35838   0.74844   1.000
    H69     H    0.74609   0.35828   0.74839   1.000
    H70     H    0.35528   0.51717   0.35989   1.000
    H71     H    0.85531   0.51697   0.35985   1.000
    H72     H    0.45052   0.50190   0.25826   1.000
    H73     H    0.95059   0.50170   0.25820   1.000
    H74     H    0.02630   0.40050   0.32006   1.000
    H75     H    0.52620   0.40062   0.31997   1.000
    H76     H    0.99868   0.31613   0.48292   1.000
    H77     H    0.49863   0.31621   0.48283   1.000
    H78     H    0.24195   0.60657   0.48127   1.000
    H79     H    0.74203   0.60655   0.48117   1.000
    H80     H    0.27811   0.56403   0.40951   1.000
    H81     H    0.77818   0.56398   0.40944   1.000
    H82     H    0.35738   0.68803   0.28716   1.000
    H83     H    0.85749   0.68786   0.28709   1.000
    H84     H    0.45535   0.80056   0.22743   1.000
    H85     H    0.95544   0.80044   0.22732   1.000
    H86     H    0.43916   0.73692   0.49004   1.000
    H87     H    0.93917   0.73703   0.48991   1.000
    H88     H    0.34334   0.62671   0.54934   1.000
    H89     H    0.84339   0.62675   0.54924   1.000
    H90     H    0.22465   0.68827   0.30525   1.000
    H91     H    0.72466   0.68809   0.30527   1.000
    H92     H    0.34004   0.76036   0.04033   1.000
    H93     H    0.84000   0.76030   0.04029   1.000
    H94     H    0.26766   0.96789   0.10069   1.000
    H95     H    0.76768   0.96776   0.10083   1.000
    H96     H    0.29137   0.14310   0.36729   1.000
    H97     H    0.79138   0.14308   0.36718   1.000
    H98     H    0.25363   0.10653   0.25268   1.000
    H99     H    0.75359   0.10632   0.25271   1.000
    H100    H    0.14423   0.87633   0.64114   1.000
    H101    H    0.64406   0.87669   0.64128   1.000
    H102    H    0.04898   0.75914   0.74269   1.000
    H103    H    0.54890   0.75939   0.74284   1.000
    H104    H    0.47340   0.71940   0.68105   1.000
    H105    H    0.97327   0.71961   0.68080   1.000
    H106    H    0.50110   0.79776   0.51819   1.000
    H107    H    0.00000   0.79821   0.51000   1.000
    H108    H    0.25724   0.08781   0.51996   1.000
    H109    H    0.75732   0.08789   0.51984   1.000
    H110    H    0.22117   0.97336   0.59100   1.000
    H111    H    0.72116   0.97347   0.59165   1.000
    C112    C    0.26470   0.39604   0.67738   1.000
    C113    C    0.76465   0.39594   0.67734   1.000
    C114    C    0.32594   0.43387   0.54370   1.000
    C115    C    0.82592   0.43373   0.54372   1.000
    C116    C    0.37859   0.42971   0.47569   1.000
    H117    H    0.14186   0.97482   0.71400   1.000
    H118    H    0.64192   0.97495   0.71390   1.000
    H119    H    0.04400   0.02759   0.77371   1.000
    H120    H    0.54411   0.02780   0.77364   1.000
    H121    H    0.06007   0.22636   0.51104   1.000
    H122    H    0.56026   0.22672   0.51099   1.000
    H123    H    0.15578   0.17548   0.45175   1.000
    H124    H    0.65593   0.17577   0.45169   1.000
    C125    C    0.36786   0.47650   0.76330   1.000
    C126    C    0.86759   0.47663   0.76321   1.000
    C127    C    0.37270   0.38959   0.82430   1.000
    C128    C    0.87248   0.38973   0.82424   1.000
    C129    C    0.35808   0.36770   0.91258   1.000
    C130    C    0.85774   0.36781   0.91240   1.000
    C131    C    0.34016   0.43283   0.93910   1.000
    C132    C    0.83961   0.43285   0.93904   1.000
    C133    C    0.33388   0.51873   0.87786   1.000
    C134    C    0.83319   0.51867   0.87783   1.000
    C135    C    0.34695   0.54049   0.79030   1.000
    C136    C    0.84638   0.54048   0.79024   1.000
    C137    C    0.44473   0.97106   0.62140   1.000
    C138    C    0.94340   0.97043   0.62210   1.000
    C139    C    0.39768   0.89613   0.67708   1.000
    C140    C    0.89617   0.89570   0.67780   1.000
    C141    C    0.40269   0.93397   0.54336   1.000
    C142    C    0.90134   0.93351   0.54405   1.000
    C143    C    0.38378   0.92980   0.47520   1.000
    C144    C    0.88262   0.92925   0.47581   1.000
    C145    C    0.41810   0.97608   0.38517   1.000
    C146    C    0.91721   0.97532   0.38586   1.000
    C147    C    0.39305   0.96645   0.32790   1.000
    C148    C    0.89243   0.96560   0.32841   1.000
    C149    C    0.33482   0.91043   0.36123   1.000
    C150    C    0.83418   0.90971   0.36152   1.000
    C151    C    0.30439   0.86374   0.45166   1.000
    C152    C    0.80346   0.86325   0.45100   1.000
    C153    C    0.48590   0.07960   0.45918   1.000
    C154    C    0.98496   0.07880   0.45989   1.000
    C155    C    0.44468   0.14839   0.42249   1.000
    C156    C    0.94405   0.14796   0.42281   1.000
    C157    C    0.45773   0.19882   0.33181   1.000
    C158    C    0.95724   0.19829   0.33209   1.000
    C159    C    0.41978   0.26225   0.29815   1.000
    C160    C    0.91946   0.26192   0.29817   1.000
    C161    C    0.36780   0.27619   0.35477   1.000
    C162    C    0.86753   0.27619   0.35458   1.000
    C163    C    0.35521   0.22615   0.44536   1.000
    C164    C    0.85488   0.22636   0.44520   1.000
    C165    C    0.39329   0.16319   0.47887   1.000
    C166    C    0.89276   0.16319   0.47896   1.000
    C167    C    0.13211   0.23917   0.23715   1.000
    C168    C    0.63196   0.23893   0.23728   1.000
    C169    C    0.12722   0.21324   0.17617   1.000
    C170    C    0.62722   0.21300   0.17620   1.000
    C171    C    0.14207   0.27955   0.08780   1.000
    C172    C    0.64201   0.27932   0.08799   1.000
    C173    C    0.16031   0.37122   0.06120   1.000
    C174    C    0.66002   0.37102   0.06142   1.000
    C175    C    0.16671   0.39587   0.12230   1.000
    C176    C    0.66621   0.39571   0.12267   1.000
    C177    C    0.15341   0.33011   0.21003   1.000
    C178    C    0.65297   0.32991   0.21029   1.000
    C179    C    0.05582   0.59225   0.37860   1.000
    C180    C    0.55547   0.59202   0.37840   1.000
    C181    C    0.10273   0.57275   0.32309   1.000
    C182    C    0.60255   0.57270   0.32296   1.000
    C183    C    0.09745   0.47683   0.45693   1.000
    C184    C    0.59719   0.47676   0.45684   1.000
    C185    C    0.11617   0.40444   0.52525   1.000
    C186    C    0.61597   0.40449   0.52518   1.000
    C187    C    0.08178   0.36090   0.61525   1.000
    C188    C    0.58160   0.36096   0.61519   1.000
    C189    C    0.10669   0.29402   0.67272   1.000
    C190    C    0.60658   0.29422   0.67267   1.000
    C191    C    0.16482   0.27113   0.63960   1.000
    C192    C    0.66476   0.27143   0.63955   1.000
    C193    C    0.19529   0.31463   0.54919   1.000
    C194    C    0.69522   0.31490   0.54914   1.000
    C195    C    0.01440   0.53853   0.54083   1.000
    C196    C    0.51383   0.53812   0.54068   1.000
    C197    C    0.05550   0.57044   0.57787   1.000
    C198    C    0.55481   0.56998   0.57787   1.000
    C199    C    0.04233   0.53003   0.66858   1.000
    C200    C    0.54146   0.52951   0.66862   1.000
    C201    C    0.08021   0.55967   0.70240   1.000
    C202    C    0.57917   0.55911   0.70272   1.000
    C203    C    0.13226   0.63033   0.64606   1.000
    C204    C    0.63124   0.62974   0.64642   1.000
    C205    C    0.14492   0.67109   0.55543   1.000
    C206    C    0.64415   0.67048   0.55575   1.000
    C207    C    0.10693   0.64174   0.52170   1.000
    C208    C    0.60630   0.64121   0.52182   1.000
    C209    C    0.25156   0.97647   0.76356   1.000
    C210    C    0.75114   0.97609   0.76380   1.000
    C211    C    0.21632   0.88956   0.82428   1.000
    C212    C    0.71584   0.88924   0.82463   1.000
    C213    C    0.18663   0.86773   0.91234   1.000
    C214    C    0.68635   0.86746   0.91271   1.000
    C215    C    0.19100   0.93287   0.93900   1.000
    C216    C    0.69091   0.93263   0.93929   1.000
    C217    C    0.22794   0.01869   0.87818   1.000
    C218    C    0.72790   0.01840   0.87834   1.000
    C219    C    0.25881   0.04042   0.79075   1.000
    C220    C    0.75865   0.04006   0.79089   1.000
    C221    C    0.24526   0.47092   0.62160   1.000
    C222    C    0.74529   0.47090   0.62153   1.000
    C223    C    0.87859   0.42956   0.47569   1.000
    C224    C    0.38897   0.47617   0.38560   1.000
    C225    C    0.88899   0.47599   0.38560   1.000
    C226    C    0.44239   0.46663   0.32841   1.000
    C227    C    0.94243   0.46645   0.32843   1.000
    C228    C    0.48398   0.41048   0.36187   1.000
    C229    C    0.98403   0.41033   0.36193   1.000
    C230    C    0.46949   0.36358   0.45233   1.000
    C231    C    0.96951   0.36347   0.45240   1.000
    C232    C    0.28439   0.57932   0.45934   1.000
    C233    C    0.78446   0.57928   0.45920   1.000
    C234    C    0.34384   0.64820   0.42239   1.000
    C235    C    0.84391   0.64814   0.42230   1.000
    C236    C    0.37559   0.69846   0.33169   1.000
    C237    C    0.87569   0.69835   0.33160   1.000
    C238    C    0.43032   0.76184   0.29784   1.000
    C239    C    0.93040   0.76175   0.29774   1.000
    C240    C    0.45448   0.77589   0.35431   1.000
    C241    C    0.95454   0.77589   0.35418   1.000
    C242    C    0.42227   0.72608   0.44492   1.000
    C243    C    0.92231   0.72613   0.44480   1.000
    C244    C    0.36749   0.66320   0.47860   1.000
    C245    C    0.86755   0.66320   0.47850   1.000
    C246    C    0.24830   0.73956   0.23723   1.000
    C247    C    0.74831   0.73940   0.23726   1.000
    C248    C    0.28362   0.71359   0.17647   1.000
    C249    C    0.78361   0.71345   0.17646   1.000
    C250    C    0.31343   0.78002   0.08848   1.000
    C251    C    0.81342   0.77992   0.08848   1.000
    C252    C    0.30906   0.87182   0.06189   1.000
    C253    C    0.80907   0.87173   0.06196   1.000
    C254    C    0.27203   0.89656   0.12277   1.000
    C255    C    0.77205   0.89643   0.12288   1.000
    C256    C    0.24107   0.83067   0.21014   1.000
    C257    C    0.74110   0.83050   0.21020   1.000
    C258    C    0.25422   0.09238   0.37958   1.000
    C259    C    0.75420   0.09236   0.37954   1.000
    C260    C    0.23499   0.07312   0.32373   1.000
    C261    C    0.73495   0.07300   0.32376   1.000
    C262    C    0.17363   0.97712   0.45731   1.000
    C263    C    0.67357   0.97714   0.45737   1.000
    C264    C    0.12098   0.90472   0.52530   1.000
    C265    C    0.62093   0.90474   0.52541   1.000
    C266    C    0.11056   0.86101   0.61539   1.000
    C267    C    0.61047   0.86120   0.61551   1.000
    C268    C    0.05713   0.79412   0.67253   1.000
    C269    C    0.55708   0.79425   0.67268   1.000
    C270    C    0.01555   0.77143   0.63900   1.000
    C271    C    0.51560   0.77131   0.63918   1.000
    C272    C    0.03009   0.81509   0.54853   1.000
    C273    C    0.53016   0.81483   0.54870   1.000
    C274    C    0.21486   0.03845   0.54184   1.000
    C275    C    0.71489   0.03857   0.54177   1.000
    C276    C    0.15536   0.07015   0.57874   1.000
    C277    C    0.65545   0.07036   0.57867   1.000
    C278    C    0.12365   0.02973   0.66945   1.000
    C279    C    0.62374   0.02992   0.66938   1.000
    C280    C    0.06899   0.05924   0.70328   1.000
    C281    C    0.56911   0.05948   0.70321   1.000
    C282    C    0.04484   0.12974   0.64680   1.000
    C283    C    0.54500   0.13003   0.64673   1.000
    C284    C    0.07697   0.17045   0.55617   1.000
    C285    C    0.57714   0.17078   0.55611   1.000
    C286    C    0.13168   0.14125   0.52250   1.000
    C287    C    0.63182   0.14154   0.52244   1.000
    N288    N    0.44796   0.99475   0.53694   1.000
    N289    N    0.94673   0.99412   0.53760   1.000
    N290    N    0.37223   0.87391   0.62803   1.000
    N291    N    0.87068   0.87359   0.62871   1.000
    N292    N    0.32773   0.87292   0.50763   1.000
    N293    N    0.82653   0.87249   0.50806   1.000
    N294    N    0.05242   0.53147   0.46314   1.000
    N295    N    0.55202   0.53121   0.46300   1.000
    N296    N    0.12793   0.50129   0.37232   1.000
    N297    N    0.62780   0.50134   0.37223   1.000
    N298    N    0.17211   0.37977   0.49302   1.000
    N299    N    0.67197   0.37993   0.49298   1.000
    N300    N    0.28388   0.49461   0.53719   1.000
    N301    N    0.78392   0.49456   0.53714   1.000
    N302    N    0.31444   0.37384   0.62840   1.000
    N303    N    0.81437   0.37367   0.62844   1.000
    N304    N    0.41845   0.37269   0.50825   1.000
    N305    N    0.91844   0.37256   0.50820   1.000
    N306    N    0.21552   0.03156   0.46390   1.000
    N307    N    0.71549   0.03164   0.46394   1.000
    N308    N    0.18529   0.00000   0.37258   1.000
    N309    N    0.68523   0.00000   0.37267   1.000
    N310    N    0.08117   0.88020   0.49266   1.000
    N311    N    0.58120   0.88001   0.49281   1.000
loop_
    _geom_bond_atom_site_label_1
    _geom_bond_atom_site_label_2
    _geom_bond_distance
    _geom_bond_site_symmetry_2
    _ccdc_geom_bond_type
    H32    C171      1.08760      .   S
    H33    C172      1.08895      .   S
    H93    C251      1.08895      .   S
    H92    C250      1.08896      .   S
    C173   C171      1.39887      .   S
    C173   C175      1.39851      .   S
    C174   C172      1.39841      .   S
    C174   C176      1.40002      .   S
    C252   C250      1.39848      .   S
    C252   C254      1.40029      .   S
    C253   C251      1.39861      .   S
    C253   C255      1.40031      .   S
    C171   C169      1.40670      .   S
    C172   C170      1.40482      .   S
    C251   C249      1.40531      .   S
    C250   C248      1.40529      .   S
    H34    C175      1.08781      .   S
    H35    C176      1.08745      .   S
    H94    C254      1.08757      .   S
    H95    C255      1.08756      .   S
    C175   C177      1.40018      .   S
    C176   C178      1.39909      .   S
    C254   C256      1.39928      .   S
    C255   C257      1.39887      .   S
    C169   C167      1.39962      .   S
    C170   C168      1.40034      .   S
    C249   C247      1.39963      .   S
    C248   C246      1.39956      .   S
    C177   C167      1.39920      .   S
    C256   C246      1.39915      .   S
    C257   C247      1.39904      .   S
    C178   C168      1.39910      .   S
    H85    C239      1.08919      .   S
    H84    C238      1.08906      .   S
    H25    C160      1.08924      .   S
    H24    C159      1.08922      .   S
    C167   H30       1.08787      .   S
    C246   H90       1.08784      .   S
    C247   H91       1.08786      .   S
    C168   H31       1.08686      .   S
    H39    C182      1.08470      .   S
    H38    C181      1.08524      .   S
    H98    C260      1.08468      .   S
    H99    C261      1.08474      .   S
    H12    C147      1.09005  1_545   S
    H73    C227      1.09092      .   S
    H72    C226      1.08974      .   S
    H13    C148      1.09074  1_545   S
    H83    C237      1.08987      .   S
    H82    C236      1.08997      .   S
    H22    C157      1.08989      .   S
    H23    C158      1.09000      .   S
    C239   C237      1.39449      .   S
    C239   C241      1.40350      .   S
    C238   C236      1.39444      .   S
    C238   C240      1.40364      .   S
    C159   C157      1.39437      .   S
    C159   C161      1.40351      .   S
    C160   C158      1.39475      .   S
    C160   C162      1.40359      .   S
    H14    C149      1.08763      .   S
    H15    C150      1.08781      .   S
    H75    C228      1.08775      .   S
    H74    C229      1.08811  1_455   S
    C182   N297      1.37071      .   S
    C182   C180      1.37664      .   S
    C181   N296      1.37074      .   S
    C181   C179      1.37710      .   S
    C260   N308      1.38803      .   S
    C260   C258      1.37709      .   S
    C261   N309      1.38714      .   S
    C261   C259      1.37701      .   S
    C147   C149      1.39298      .   S
    C147   C145      1.39377      .   S
    C148   C150      1.39296      .   S
    C148   C146      1.39367      .   S
    C226   C228      1.39298      .   S
    C226   C224      1.39358      .   S
    C227   C229      1.39302      .   S
    C227   C225      1.39370      .   S
    C237   C235      1.40157      .   S
    C236   C234      1.40157      .   S
    C157   C155      1.40163      .   S
    C158   C156      1.40166      .   S
    C241   C243      1.40160      .   S
    C240   C242      1.40146      .   S
    C162   C164      1.40147      .   S
    C161   C163      1.40139      .   S
    H10    C145      1.08563  1_545   S
    H71    C225      1.08547      .   S
    H70    C224      1.08539      .   S
    H11    C146      1.08564  1_545   S
    C149   C151      1.39140      .   S
    C150   C152      1.37870      .   S
    C228   C230      1.39137      .   S
    C229   C231      1.39145      .   S
    H37    C180      1.08324      .   S
    H36    C179      1.08326      .   S
    H97    C259      1.08325      .   S
    H96    C258      1.08331      .   S
    N297   C184      1.34221      .   S
    N296   C183      1.34219      .   S
    N308   C262      1.34929  1_545   S
    N309   C263      1.34888  1_545   S
    C180   N295      1.38345      .   S
    C179   N294      1.38288      .   S
    C259   N307      1.38291      .   S
    C258   N306      1.38232      .   S
    C145   C143      1.39972      .   S
    C224   C116      1.39996      .   S
    C225   C223      1.39985      .   S
    C146   C144      1.39975      .   S
    H21    C153      1.09758      .   S
    H81    C233      1.09649      .   S
    H80    C232      1.09769      .   S
    H20    C154      1.09772  1_455   S
    C235   C233      1.51464      .   S
    C235   C245      1.40051      .   S
    C234   C232      1.51445      .   S
    C234   C244      1.40034      .   S
    C155   C153      1.51433      .   S
    C155   C165      1.40049      .   S
    C156   C154      1.51459      .   S
    C156   C166      1.40045      .   S
    C243   C245      1.39145      .   S
    C243   H87       1.08613      .   S
    C242   C244      1.39147      .   S
    C242   H86       1.08611      .   S
    C164   C166      1.39146      .   S
    C164   H27       1.08618      .   S
    C163   C165      1.39152      .   S
    C163   H26       1.08627      .   S
    H58    C207      1.08956      .   S
    C152   H17       1.08437      .   S
    C152   N293      1.35959      .   S
    H59    C208      1.08947      .   S
    C151   H16       1.08594      .   S
    C151   N292      1.34427      .   S
    H124   C287      1.08950      .   S
    H123   C286      1.08949      .   S
    C230   H77       1.08595      .   S
    C230   N304      1.34434      .   S
    C231   H76       1.08624      .   S
    C231   N305      1.34339      .   S
    C184   N295      1.37564      .   S
    C184   C186      1.45969      .   S
    C183   N294      1.37568      .   S
    C183   C185      1.45968      .   S
    C262   N306      1.37528  1_565   S
    C262   C264      1.45954      .   S
    C263   N307      1.37595  1_565   S
    C263   C265      1.45960      .   S
    C153   H19       1.09885      .   S
    C153   N288      1.47441  1_545   S
    C233   H79       1.09943      .   S
    C233   N301      1.47528      .   S
    C232   H78       1.09909      .   S
    C232   N300      1.47455      .   S
    C154   H18       1.09951  1_655   S
    C154   N289      1.47452  1_545   S
    N295   C196      1.47426      .   S
    N294   C195      1.47473      .   S
    N306   C274      1.47560      .   S
    N307   C275      1.47454      .   S
    C143   N292      1.36400      .   S
    C143   C141      1.45977      .   S
    C223   N305      1.36346      .   S
    C223   C115      1.45959      .   S
    C116   N304      1.36399      .   S
    C116   C114      1.45904      .   S
    C144   N293      1.36410      .   S
    C144   C142      1.45942      .   S
    C245   H89       1.08947      .   S
    C244   H88       1.08946      .   S
    C165   H28       1.08964      .   S
    C166   H29       1.08946      .   S
    N310   C264      1.36401      .   S
    N310   C272      1.34431      .   S
    N311   C265      1.36397      .   S
    N311   C273      1.34426      .   S
    N299   C186      1.36400      .   S
    N299   C194      1.34423      .   S
    N298   C185      1.36398      .   S
    N298   C193      1.34432      .   S
    H107   C272      1.22307      .   S
    H56    C205      1.08612      .   S
    H57    C206      1.08609      .   S
    H122   C285      1.08615      .   S
    H121   C284      1.08619      .   S
    H106   C273      1.08586      .   S
    H48    C196      1.09907      .   S
    H49    C195      1.09946  1_655   S
    H47    C194      1.08601      .   S
    H46    C193      1.08600      .   S
    H109   C275      1.09910      .   S
    H108   C274      1.09912      .   S
    C207   C205      1.39142      .   S
    C207   C197      1.40041      .   S
    C208   C206      1.39129      .   S
    C208   C198      1.40041      .   S
    C287   C285      1.39141      .   S
    C287   C277      1.40032      .   S
    C286   C284      1.39145      .   S
    C286   C276      1.40042      .   S
    C186   C188      1.39971      .   S
    C185   C187      1.39967      .   S
    C264   C266      1.39978      .   S
    C265   C267      1.39979      .   S
    N288   C141      1.37557      .   S
    N288   C137      1.38285      .   S
    N301   C115      1.37571      .   S
    N301   C222      1.38277      .   S
    N300   C114      1.37576      .   S
    N300   C221      1.38286      .   S
    N289   C142      1.37530      .   S
    N289   C138      1.38292      .   S
    C196   C198      1.51435      .   S
    C196   H50       1.09753      .   S
    C195   C197      1.51472      .   S
    C195   H51       1.09777  1_455   S
    C275   C277      1.51434      .   S
    C275   H111      1.09769  1_545   S
    C274   C276      1.51444      .   S
    C274   H110      1.09262  1_545   S
    C141   N290      1.34218      .   S
    C114   N302      1.34220      .   S
    C115   N303      1.34241      .   S
    C142   N291      1.34220      .   S
    C272   C270      1.39138      .   S
    C273   C271      1.39151      .   S
    C194   C192      1.39132      .   S
    C193   C191      1.39137      .   S
    C205   C203      1.40166      .   S
    C206   C204      1.40148      .   S
    C285   C283      1.40149      .   S
    C284   C282      1.40163      .   S
    C198   C200      1.40160      .   S
    C197   C199      1.40157      .   S
    C277   C279      1.40168      .   S
    C276   C278      1.40169      .   S
    C188   H41       1.08513      .   S
    C188   C190      1.39376      .   S
    C187   H40       1.08550      .   S
    C187   C189      1.39369      .   S
    C266   H100      1.08546      .   S
    C266   C268      1.39366      .   S
    C267   H101      1.08542      .   S
    C267   C269      1.39363      .   S
    C137   H6        0.98290  1_565   S
    C137   C139      1.37705      .   S
    C222   H67       1.08301      .   S
    C222   C113      1.37714      .   S
    C221   H66       1.08330      .   S
    C221   C112      1.37708      .   S
    C138   H7        0.99194  1_565   S
    C138   C140      1.37720      .   S
    N290   C139      1.37065      .   S
    N302   C112      1.37121      .   S
    N303   C113      1.37075      .   S
    N291   C140      1.37079      .   S
    C270   C268      1.39305      .   S
    C270   H105      1.08802  1_455   S
    C271   C269      1.39292      .   S
    C271   H104      1.08770      .   S
    C192   C190      1.39300      .   S
    C192   H45       1.08775      .   S
    C191   C189      1.39295      .   S
    C191   H44       1.08774      .   S
    C203   C201      1.40352      .   S
    C204   C202      1.40345      .   S
    C283   C281      1.40353      .   S
    C282   C280      1.40353      .   S
    C199   C201      1.39365      .   S
    C199   H52       1.08985      .   S
    C200   C202      1.39453      .   S
    C200   H53       1.08982      .   S
    C279   C281      1.39441      .   S
    C279   H118      1.08994  1_545   S
    C278   C280      1.39451      .   S
    C278   H117      1.09010  1_545   S
    C268   H102      1.08981      .   S
    C190   H43       1.08972      .   S
    C269   H103      1.08969      .   S
    C189   H42       1.08978      .   S
    C139   H8        1.08475      .   S
    C113   H69       1.08462      .   S
    C112   H68       1.08476      .   S
    C140   H9        1.08468      .   S
    H1     C126      1.08775      .   S
    H0     C125      1.08709      .   S
    H60    C209      1.08779      .   S
    H61    C210      1.08774      .   S
    C201   H54       1.09062      .   S
    C202   H55       1.08918      .   S
    C281   H120      1.08932      .   S
    C280   H119      1.08927      .   S
    C126   C136      1.39929      .   S
    C126   C128      1.39980      .   S
    C125   C135      1.39960      .   S
    C125   C127      1.39928      .   S
    C209   C219      1.39942  1_565   S
    C209   C211      1.39964      .   S
    C210   C220      1.39956  1_565   S
    C210   C212      1.39979      .   S
    C136   C134      1.39899      .   S
    C135   C133      1.39904      .   S
    C219   C217      1.39927      .   S
    C220   C218      1.39946      .   S
    C128   C130      1.40420      .   S
    C211   C213      1.40526      .   S
    C127   C129      1.40676      .   S
    C212   C214      1.40528      .   S
    C134   H5        1.08752      .   S
    C134   C132      1.40004      .   S
    C133   H4        1.08742      .   S
    C133   C131      1.40006      .   S
    C217   H64       1.08753      .   S
    C217   C215      1.40043  1_545   S
    C218   H65       1.08748      .   S
    C218   C216      1.40055  1_545   S
    C213   C215      1.39815      .   S
    C213   H62       1.08896      .   S
    C130   C132      1.39921      .   S
    C130   H3        1.08941      .   S
    C129   C131      1.39834      .   S
    C129   H2        1.08891      .   S
    C214   C216      1.39832      .   S
    C214   H63       1.08894      .   S
