# CIF file generated by openbabel 2.4.90, see http://openbabel.sf.net
data_I
_chemical_name_common ''
_cell_length_a 22.353
_cell_length_b 16.76
_cell_length_c 18.262
_cell_angle_alpha 62.678
_cell_angle_beta 72.41
_cell_angle_gamma 90.054
_space_group_name_H-M_alt 'P 1'
_space_group_name_Hall 'P 1'
loop_
    _symmetry_equiv_pos_as_xyz
    x,y,z
loop_
    _atom_site_label
    _atom_site_type_symbol
    _atom_site_fract_x
    _atom_site_fract_y
    _atom_site_fract_z
    _atom_site_occupancy
    N0      N    0.58270   0.56041   0.37302   1.000
    N1      N    0.76976   0.43375   0.62719   1.000
    N2      N    0.14726   0.30489   0.14888   1.000
    N3      N    0.85254   0.45415   0.85141   1.000
    N4      N    0.41744   0.93261   0.62697   1.000
    N5      N    0.26977   0.43382   0.62724   1.000
    N6      N    0.72977   0.06051   0.37388   1.000
    N7      N    0.22981   0.06054   0.37387   1.000
    N8      N    0.91604   0.93220   0.62769   1.000
    N9      N    0.72195   0.95378   0.85186   1.000
    N10     N    0.08297   0.56054   0.37315   1.000
    N11     N    0.77777   0.80529   0.14929   1.000
    N12     N    0.27776   0.80542   0.14925   1.000
    N13     N    0.64701   0.30469   0.14906   1.000
    N14     N    0.22220   0.95409   0.85160   1.000
    N15     N    0.35299   0.45410   0.85149   1.000
    Zr16    Zr   0.38172   0.15626   0.77832   1.000
    O17     O    0.37440   0.28027   0.80455   1.000
    O18     O    0.31624   0.08800   0.79166   1.000
    O19     O    0.47737   0.13583   0.70503   1.000
    O20     O    0.34171   0.00646   0.93018   1.000
    Zr21    Zr   0.88160   0.15613   0.77833   1.000
    O22     O    0.81608   0.08777   0.79175   1.000
    O23     O    0.87419   0.28026   0.80451   1.000
    O24     O    0.84165   0.00634   0.93021   1.000
    O25     O    0.97725   0.13565   0.70506   1.000
    Zr26    Zr   0.61820   0.93349   0.22271   1.000
    O27     O    0.68369   0.87881   0.20933   1.000
    O28     O    0.65819   0.93558   0.07091   1.000
    O29     O    0.52232   0.83987   0.29600   1.000
    O30     O    0.62553   0.08381   0.19626   1.000
    Zr31    Zr   0.26988   0.43376   0.22285   1.000
    O32     O    0.27559   0.58427   0.19643   1.000
    O33     O    0.32916   0.34017   0.29625   1.000
    O34     O    0.21120   0.37878   0.20926   1.000
    O35     O    0.30639   0.43583   0.07087   1.000
    Zr36    Zr   0.76933   0.43356   0.22295   1.000
    O37     O    0.71072   0.37856   0.20945   1.000
    O38     O    0.82868   0.33997   0.29630   1.000
    O39     O    0.80585   0.43574   0.07090   1.000
    O40     O    0.77530   0.58410   0.19649   1.000
    Zr41    Zr   0.11818   0.93368   0.22255   1.000
    O42     O    0.02234   0.83997   0.29586   1.000
    O43     O    0.12557   0.08401   0.19613   1.000
    O44     O    0.15827   0.93580   0.07071   1.000
    O45     O    0.18368   0.87899   0.20922   1.000
    Zr46    Zr   0.23057   0.65634   0.77753   1.000
    O47     O    0.19403   0.50622   0.92948   1.000
    O48     O    0.22462   0.78031   0.80414   1.000
    O49     O    0.17113   0.63600   0.70426   1.000
    O50     O    0.28920   0.58807   0.79109   1.000
    Zr51    Zr   0.72950   0.65603   0.77793   1.000
    O52     O    0.69335   0.50597   0.92978   1.000
    O53     O    0.67011   0.63558   0.70460   1.000
    O54     O    0.72386   0.78000   0.80451   1.000
    O55     O    0.78839   0.58792   0.79122   1.000
    O56     O    0.12605   0.93617   0.33206   1.000
    O57     O    0.87366   0.26818   0.66876   1.000
    O58     O    0.62606   0.93602   0.33230   1.000
    O59     O    0.70700   0.43611   0.33236   1.000
    O60     O    0.37373   0.26831   0.66874   1.000
    O61     O    0.79169   0.76788   0.66858   1.000
    O62     O    0.29289   0.76825   0.66809   1.000
    O63     O    0.20735   0.43617   0.33232   1.000
loop_
    _geom_bond_atom_site_label_1
    _geom_bond_atom_site_label_2
    _geom_bond_distance
    _geom_bond_site_symmetry_2
    _ccdc_geom_bond_type
    Zr16   O17       2.33311      .   S
    N15    O17       3.39099      .   S
    Zr16   O18       1.74241      .   S
    N14    O18       2.64559  1_565   S
    Zr16   O19       2.27426      .   S
    N6     O19       7.50974      .   S
    Zr16   O20       2.62668      .   S
    N12    O20       3.68264  1_564   S
    Zr21   O22       1.74358      .   S
    N9     O22       2.64718  1_565   S
    Zr21   O23       2.33442      .   S
    N3     O23       3.39201      .   S
    Zr21   O24       2.62678      .   S
    N11    O24       3.68277  1_564   S
    Zr21   O25       2.27441      .   S
    N7     O25       7.51017  1_455   S
    Zr26   O27       1.74189      .   S
    N11    O27       2.64481      .   S
    Zr26   O28       2.62634      .   S
    N9     O28       3.68245  1_556   S
    Zr26   O29       2.27565      .   S
    N5     O29       7.50135      .   S
    Zr26   O30       2.33276  1_565   S
    N13    O30       3.39047      .   S
    Zr31   O32       2.33600      .   S
    N12    O32       3.39490      .   S
    Zr31   O33       2.27166      .   S
    N4     O33       7.50923  1_565   S
    Zr31   O34       1.74245      .   S
    N2     O34       2.64470      .   S
    Zr31   O35       2.62918      .   S
    N15    O35       3.68522  1_556   S
    Zr36   O37       1.74036      .   S
    N13    O37       2.64119      .   S
    Zr36   O38       2.27235      .   S
    N8     O38       7.50632  1_565   S
    Zr36   O39       2.62974      .   S
    N3     O39       3.68589  1_556   S
    Zr36   O40       2.33624      .   S
    N11    O40       3.39507      .   S
    Zr41   O42       2.27572      .   S
    N1     O42       7.50362  1_655   S
    Zr41   O43       2.33311  1_565   S
    N2     O43       3.39046      .   S
    Zr41   O44       2.62706      .   S
    N14    O44       3.68293  1_556   S
    Zr41   O45       1.74195      .   S
    N12    O45       2.64494      .   S
    Zr46   O47       2.62951      .   S
    N2     O47       3.68549  1_554   S
    Zr46   O48       2.33647      .   S
    N14    O48       3.39505      .   S
    Zr46   O49       2.27252      .   S
    N10    O49       7.50093      .   S
    Zr46   O50       1.73988      .   S
    N15    O50       2.64094      .   S
    Zr51   O52       2.62831      .   S
    N13    O52       3.68430  1_554   S
    Zr51   O53       2.27334      .   S
    N0     O53       7.49812      .   S
    Zr51   O54       2.33607      .   S
    N9     O54       3.39454      .   S
    Zr51   O55       1.74246      .   S
    N3     O55       2.64343      .   S
    Zr41   O56       2.07868      .   S
    N7     O56       3.58186  1_545   S
    Zr21   O57       2.08033      .   S
    N1     O57       3.57966      .   S
    Zr26   O58       2.08056      .   S
    N6     O58       3.57962  1_545   S
    Zr36   O59       2.08099      .   S
    N0     O59       3.57703      .   S
    Zr16   O60       2.08087      .   S
    N5     O60       3.57991      .   S
    Zr51   O61       2.07727      .   S
    N8     O61       3.56525      .   S
    Zr46   O62       2.07951      .   S
    N4     O62       3.56735      .   S
    Zr31   O63       2.08265      .   S
    N10    O63       3.57976      .   S
