# CIF file generated by openbabel 2.4.90, see http://openbabel.sf.net
data_I
_chemical_name_common ''
_cell_length_a 22.353
_cell_length_b 16.76
_cell_length_c 18.262
_cell_angle_alpha 62.678
_cell_angle_beta 72.41
_cell_angle_gamma 90.054
_space_group_name_H-M_alt 'P 1'
_space_group_name_Hall 'P 1'
loop_
    _symmetry_equiv_pos_as_xyz
    x,y,z
loop_
    _atom_site_label
    _atom_site_type_symbol
    _atom_site_fract_x
    _atom_site_fract_y
    _atom_site_fract_z
    _atom_site_occupancy
    C0      C    0.29147   0.78932   0.64707   1.000
    C1      C    0.78974   0.78889   0.64776   1.000
    C2      C    0.29865   0.46637   0.16006   1.000
    C3      C    0.79725   0.46581   0.16043   1.000
    C4      C    0.20847   0.43552   0.35344   1.000
    C5      C    0.70843   0.43566   0.35355   1.000
    C6      C    0.20265   0.62603   0.84003   1.000
    C7      C    0.70095   0.62559   0.84059   1.000
    C8      C    0.38544   0.28882   0.64780   1.000
    C9      C    0.88541   0.28868   0.64792   1.000
    C10     C    0.12031   0.96581   0.16006   1.000
    C11     C    0.62032   0.96555   0.16020   1.000
    C12     C    0.11440   0.93598   0.35299   1.000
    C13     C    0.61440   0.93572   0.35319   1.000
    C14     C    0.37958   0.12592   0.84090   1.000
    C15     C    0.87941   0.12589   0.84090   1.000
    C16     C    0.37843   0.49342   0.69519   1.000
    C17     C    0.87829   0.49360   0.69503   1.000
    C18     C    0.36045   0.29970   0.96090   1.000
    C19     C    0.86015   0.29983   0.96081   1.000
    C20     C    0.31839   0.56792   0.89990   1.000
    C21     C    0.81747   0.56777   0.89991   1.000
    C22     C    0.47583   0.00000   0.63385   1.000
    C23     C    0.97455   0.00000   0.63468   1.000
    C24     C    0.38098   0.85842   0.74814   1.000
    C25     C    0.87939   0.85807   0.74886   1.000
    C26     C    0.46457   0.01702   0.35954   1.000
    C27     C    0.96368   0.01618   0.36043   1.000
    C28     C    0.41974   0.00000   0.25779   1.000
    C29     C    0.91934   0.00000   0.25830   1.000
    C30     C    0.31337   0.90050   0.31929   1.000
    C31     C    0.81293   0.89970   0.31943   1.000
    C32     C    0.26007   0.81648   0.48209   1.000
    C33     C    0.75909   0.81616   0.48208   1.000
    C34     C    0.01662   0.10582   0.48200   1.000
    C35     C    0.51757   0.10681   0.48110   1.000
    C36     C    0.01586   0.06347   0.41011   1.000
    C37     C    0.51675   0.06447   0.40922   1.000
    C38     C    0.49789   0.18849   0.28718   1.000
    C39     C    0.99736   0.18770   0.28761   1.000
    C40     C    0.42952   0.30113   0.22775   1.000
    C41     C    0.92929   0.30064   0.22774   1.000
    C42     C    0.31609   0.23691   0.49059   1.000
    C43     C    0.81581   0.23739   0.49027   1.000
    C44     C    0.38250   0.12652   0.54961   1.000
    C45     C    0.88187   0.12667   0.54971   1.000
    C46     C    0.12134   0.18796   0.30537   1.000
    C47     C    0.62127   0.18770   0.30540   1.000
    C48     C    0.13965   0.25982   0.03960   1.000
    C49     C    0.63970   0.25961   0.03967   1.000
    C50     C    0.18249   0.46708   0.10027   1.000
    C51     C    0.68176   0.46698   0.10059   1.000
    C52     C    0.02492   0.64309   0.36596   1.000
    C53     C    0.52448   0.64275   0.36579   1.000
    C54     C    0.11951   0.60608   0.25200   1.000
    C55     C    0.61941   0.60609   0.25190   1.000
    C56     C    0.03539   0.37635   0.64072   1.000
    C57     C    0.53517   0.37630   0.64060   1.000
    C58     C    0.07996   0.25918   0.74282   1.000
    C59     C    0.57987   0.25940   0.74277   1.000
    C60     C    0.18615   0.21928   0.68173   1.000
    C61     C    0.68614   0.21967   0.68168   1.000
    C62     C    0.23955   0.29762   0.51895   1.000
    C63     C    0.73951   0.29798   0.51889   1.000
    C64     C    0.48233   0.58737   0.51850   1.000
    C65     C    0.98289   0.58782   0.51866   1.000
    C66     C    0.48284   0.47300   0.59044   1.000
    C67     C    0.98334   0.47347   0.59067   1.000
    C68     C    0.00211   0.47500   0.71300   1.000
    C69     C    0.50123   0.47448   0.71297   1.000
    C70     C    0.07035   0.52794   0.77292   1.000
    C71     C    0.56917   0.52741   0.77318   1.000
    C72     C    0.18410   0.72712   0.51033   1.000
    C73     C    0.68338   0.72647   0.51079   1.000
    C74     C    0.11784   0.67598   0.45094   1.000
    C75     C    0.61735   0.67545   0.45104   1.000
    C76     C    0.27515   0.99340   0.69550   1.000
    C77     C    0.77457   0.99299   0.69572   1.000
    C78     C    0.16012   0.79977   0.96046   1.000
    C79     C    0.65979   0.79955   0.96090   1.000
    C80     C    0.23231   0.06787   0.90034   1.000
    C81     C    0.73240   0.06760   0.90043   1.000
    C82     C    0.20801   0.50909   0.63397   1.000
    C83     C    0.70807   0.50913   0.63380   1.000
    C84     C    0.24617   0.35838   0.74844   1.000
    C85     C    0.74609   0.35828   0.74839   1.000
    C86     C    0.35528   0.51717   0.35989   1.000
    C87     C    0.85531   0.51697   0.35985   1.000
    C88     C    0.45052   0.50190   0.25826   1.000
    C89     C    0.95059   0.50170   0.25820   1.000
    C90     C    0.02630   0.40050   0.32006   1.000
    C91     C    0.52620   0.40062   0.31997   1.000
    C92     C    0.99868   0.31613   0.48292   1.000
    C93     C    0.49863   0.31621   0.48283   1.000
    C94     C    0.24195   0.60657   0.48127   1.000
    C95     C    0.74203   0.60655   0.48117   1.000
    C96     C    0.27811   0.56403   0.40951   1.000
    C97     C    0.77818   0.56398   0.40944   1.000
    C98     C    0.35738   0.68803   0.28716   1.000
    C99     C    0.85749   0.68786   0.28709   1.000
    C100    C    0.45535   0.80056   0.22743   1.000
    C101    C    0.95544   0.80044   0.22732   1.000
    C102    C    0.43916   0.73692   0.49004   1.000
    C103    C    0.93917   0.73703   0.48991   1.000
    C104    C    0.34334   0.62671   0.54934   1.000
    C105    C    0.84339   0.62675   0.54924   1.000
    C106    C    0.22465   0.68827   0.30525   1.000
    C107    C    0.72466   0.68809   0.30527   1.000
    C108    C    0.34004   0.76036   0.04033   1.000
    C109    C    0.84000   0.76030   0.04029   1.000
    C110    C    0.26766   0.96789   0.10069   1.000
    C111    C    0.76768   0.96776   0.10083   1.000
    C112    C    0.29137   0.14310   0.36729   1.000
    C113    C    0.79138   0.14308   0.36718   1.000
    C114    C    0.25363   0.10653   0.25268   1.000
    C115    C    0.75359   0.10632   0.25271   1.000
    C116    C    0.14423   0.87633   0.64114   1.000
    C117    C    0.64406   0.87669   0.64128   1.000
    C118    C    0.04898   0.75914   0.74269   1.000
    C119    C    0.54890   0.75939   0.74284   1.000
    C120    C    0.47340   0.71940   0.68105   1.000
    C121    C    0.97327   0.71961   0.68080   1.000
    C122    C    0.50110   0.79776   0.51819   1.000
    C123    C    0.00000   0.79821   0.51000   1.000
    C124    C    0.25724   0.08781   0.51996   1.000
    C125    C    0.75732   0.08789   0.51984   1.000
    C126    C    0.22117   0.97336   0.59100   1.000
    C127    C    0.72116   0.97347   0.59165   1.000
    C128    C    0.14186   0.97482   0.71400   1.000
    C129    C    0.64192   0.97495   0.71390   1.000
    C130    C    0.04400   0.02759   0.77371   1.000
    C131    C    0.54411   0.02780   0.77364   1.000
    C132    C    0.06007   0.22636   0.51104   1.000
    C133    C    0.56026   0.22672   0.51099   1.000
    C134    C    0.15578   0.17548   0.45175   1.000
    C135    C    0.65593   0.17577   0.45169   1.000
    C136    C    0.36786   0.47650   0.76330   1.000
    C137    C    0.86759   0.47663   0.76321   1.000
    C138    C    0.37270   0.38959   0.82430   1.000
    C139    C    0.87248   0.38973   0.82424   1.000
    C140    C    0.35808   0.36770   0.91258   1.000
    C141    C    0.85774   0.36781   0.91240   1.000
    C142    C    0.34016   0.43283   0.93910   1.000
    C143    C    0.83961   0.43285   0.93904   1.000
    C144    C    0.33388   0.51873   0.87786   1.000
    C145    C    0.83319   0.51867   0.87783   1.000
    C146    C    0.34695   0.54049   0.79030   1.000
    C147    C    0.84638   0.54048   0.79024   1.000
    C148    C    0.32550   0.41060   0.03350   1.000
    C149    C    0.82479   0.41054   0.03348   1.000
    C150    C    0.33841   0.63051   0.72527   1.000
    C151    C    0.83761   0.63043   0.72500   1.000
    C152    C    0.38967   0.31937   0.79581   1.000
    C153    C    0.88951   0.31949   0.79569   1.000
    C154    C    0.44473   0.97106   0.62140   1.000
    C155    C    0.94340   0.97043   0.62210   1.000
    C156    C    0.39768   0.89613   0.67708   1.000
    C157    C    0.89617   0.89570   0.67780   1.000
    C158    C    0.40269   0.93397   0.54336   1.000
    C159    C    0.90134   0.93351   0.54405   1.000
    C160    C    0.38378   0.92980   0.47520   1.000
    C161    C    0.88262   0.92925   0.47581   1.000
    C162    C    0.41810   0.97608   0.38517   1.000
    C163    C    0.91721   0.97532   0.38586   1.000
    C164    C    0.39305   0.96645   0.32790   1.000
    C165    C    0.89243   0.96560   0.32841   1.000
    C166    C    0.33482   0.91043   0.36123   1.000
    C167    C    0.83418   0.90971   0.36152   1.000
    C168    C    0.30439   0.86374   0.45166   1.000
    C169    C    0.80346   0.86325   0.45100   1.000
    C170    C    0.48590   0.07960   0.45918   1.000
    C171    C    0.98496   0.07880   0.45989   1.000
    C172    C    0.44468   0.14839   0.42249   1.000
    C173    C    0.94405   0.14796   0.42281   1.000
    C174    C    0.45773   0.19882   0.33181   1.000
    C175    C    0.95724   0.19829   0.33209   1.000
    C176    C    0.41978   0.26225   0.29815   1.000
    C177    C    0.91946   0.26192   0.29817   1.000
    C178    C    0.36780   0.27619   0.35477   1.000
    C179    C    0.86753   0.27619   0.35458   1.000
    C180    C    0.35521   0.22615   0.44536   1.000
    C181    C    0.85488   0.22636   0.44520   1.000
    C182    C    0.39329   0.16319   0.47887   1.000
    C183    C    0.89276   0.16319   0.47896   1.000
    C184    C    0.32678   0.34412   0.31825   1.000
    C185    C    0.82647   0.34405   0.31796   1.000
    C186    C    0.13211   0.23917   0.23715   1.000
    C187    C    0.63196   0.23893   0.23728   1.000
    C188    C    0.12722   0.21324   0.17617   1.000
    C189    C    0.62722   0.21300   0.17620   1.000
    C190    C    0.14207   0.27955   0.08780   1.000
    C191    C    0.64201   0.27932   0.08799   1.000
    C192    C    0.16031   0.37122   0.06120   1.000
    C193    C    0.66002   0.37102   0.06142   1.000
    C194    C    0.16671   0.39587   0.12230   1.000
    C195    C    0.66621   0.39571   0.12267   1.000
    C196    C    0.15341   0.33011   0.21003   1.000
    C197    C    0.65297   0.32991   0.21029   1.000
    C198    C    0.17517   0.44341   0.96674   1.000
    C199    C    0.67471   0.44323   0.96702   1.000
    C200    C    0.16213   0.35527   0.27487   1.000
    C201    C    0.66143   0.35494   0.27534   1.000
    C202    C    0.11011   0.11437   0.20487   1.000
    C203    C    0.61019   0.11415   0.20492   1.000
    C204    C    0.05582   0.59225   0.37860   1.000
    C205    C    0.55547   0.59202   0.37840   1.000
    C206    C    0.10273   0.57275   0.32309   1.000
    C207    C    0.60255   0.57270   0.32296   1.000
    C208    C    0.09745   0.47683   0.45693   1.000
    C209    C    0.59719   0.47676   0.45684   1.000
    C210    C    0.11617   0.40444   0.52525   1.000
    C211    C    0.61597   0.40449   0.52518   1.000
    C212    C    0.08178   0.36090   0.61525   1.000
    C213    C    0.58160   0.36096   0.61519   1.000
    C214    C    0.10669   0.29402   0.67272   1.000
    C215    C    0.60658   0.29422   0.67267   1.000
    C216    C    0.16482   0.27113   0.63960   1.000
    C217    C    0.66476   0.27143   0.63955   1.000
    C218    C    0.19529   0.31463   0.54919   1.000
    C219    C    0.69522   0.31490   0.54914   1.000
    C220    C    0.01440   0.53853   0.54083   1.000
    C221    C    0.51383   0.53812   0.54068   1.000
    C222    C    0.05550   0.57044   0.57787   1.000
    C223    C    0.55481   0.56998   0.57787   1.000
    C224    C    0.04233   0.53003   0.66858   1.000
    C225    C    0.54146   0.52951   0.66862   1.000
    C226    C    0.08021   0.55967   0.70240   1.000
    C227    C    0.57917   0.55911   0.70272   1.000
    C228    C    0.13226   0.63033   0.64606   1.000
    C229    C    0.63124   0.62974   0.64642   1.000
    C230    C    0.14492   0.67109   0.55543   1.000
    C231    C    0.64415   0.67048   0.55575   1.000
    C232    C    0.10693   0.64174   0.52170   1.000
    C233    C    0.60630   0.64121   0.52182   1.000
    C234    C    0.17338   0.66166   0.68262   1.000
    C235    C    0.67206   0.66119   0.68318   1.000
    C236    C    0.25156   0.97647   0.76356   1.000
    C237    C    0.75114   0.97609   0.76380   1.000
    C238    C    0.21632   0.88956   0.82428   1.000
    C239    C    0.71584   0.88924   0.82463   1.000
    C240    C    0.18663   0.86773   0.91234   1.000
    C241    C    0.68635   0.86746   0.91271   1.000
    C242    C    0.19100   0.93287   0.93900   1.000
    C243    C    0.69091   0.93263   0.93929   1.000
    C244    C    0.22794   0.01869   0.87818   1.000
    C245    C    0.72790   0.01840   0.87834   1.000
    C246    C    0.25881   0.04042   0.79075   1.000
    C247    C    0.75865   0.04006   0.79089   1.000
    C248    C    0.15797   0.91064   0.03324   1.000
    C249    C    0.65795   0.91050   0.03347   1.000
    C250    C    0.29982   0.13039   0.72603   1.000
    C251    C    0.79968   0.13002   0.72606   1.000
    C252    C    0.21401   0.81940   0.79547   1.000
    C253    C    0.71311   0.81904   0.79599   1.000
    C254    C    0.24526   0.47092   0.62160   1.000
    C255    C    0.74529   0.47090   0.62153   1.000
    C256    C    0.26470   0.39604   0.67738   1.000
    C257    C    0.76465   0.39594   0.67734   1.000
    C258    C    0.32594   0.43387   0.54370   1.000
    C259    C    0.82592   0.43373   0.54372   1.000
    C260    C    0.37859   0.42971   0.47569   1.000
    C261    C    0.87859   0.42956   0.47569   1.000
    C262    C    0.38897   0.47617   0.38560   1.000
    C263    C    0.88899   0.47599   0.38560   1.000
    C264    C    0.44239   0.46663   0.32841   1.000
    C265    C    0.94243   0.46645   0.32843   1.000
    C266    C    0.48398   0.41048   0.36187   1.000
    C267    C    0.98403   0.41033   0.36193   1.000
    C268    C    0.46949   0.36358   0.45233   1.000
    C269    C    0.96951   0.36347   0.45240   1.000
    C270    C    0.28439   0.57932   0.45934   1.000
    C271    C    0.78446   0.57928   0.45920   1.000
    C272    C    0.34384   0.64820   0.42239   1.000
    C273    C    0.84391   0.64814   0.42230   1.000
    C274    C    0.37559   0.69846   0.33169   1.000
    C275    C    0.87569   0.69835   0.33160   1.000
    C276    C    0.43032   0.76184   0.29784   1.000
    C277    C    0.93040   0.76175   0.29774   1.000
    C278    C    0.45448   0.77589   0.35431   1.000
    C279    C    0.95454   0.77589   0.35418   1.000
    C280    C    0.42227   0.72608   0.44492   1.000
    C281    C    0.92231   0.72613   0.44480   1.000
    C282    C    0.36749   0.66320   0.47860   1.000
    C283    C    0.86755   0.66320   0.47850   1.000
    C284    C    0.01382   0.84369   0.31750   1.000
    C285    C    0.51378   0.84360   0.31766   1.000
    C286    C    0.24830   0.73956   0.23723   1.000
    C287    C    0.74831   0.73940   0.23726   1.000
    C288    C    0.28362   0.71359   0.17647   1.000
    C289    C    0.78361   0.71345   0.17646   1.000
    C290    C    0.31343   0.78002   0.08848   1.000
    C291    C    0.81342   0.77992   0.08848   1.000
    C292    C    0.30906   0.87182   0.06189   1.000
    C293    C    0.80907   0.87173   0.06196   1.000
    C294    C    0.27203   0.89656   0.12277   1.000
    C295    C    0.77205   0.89643   0.12288   1.000
    C296    C    0.24107   0.83067   0.21014   1.000
    C297    C    0.74110   0.83050   0.21020   1.000
    C298    C    0.34223   0.94395   0.96777   1.000
    C299    C    0.84220   0.94390   0.96783   1.000
    C300    C    0.20008   0.85574   0.27490   1.000
    C301    C    0.70008   0.85549   0.27506   1.000
    C302    C    0.28604   0.61467   0.20508   1.000
    C303    C    0.78590   0.61450   0.20509   1.000
    C304    C    0.25422   0.09238   0.37958   1.000
    C305    C    0.75420   0.09236   0.37954   1.000
    C306    C    0.23499   0.07312   0.32373   1.000
    C307    C    0.73495   0.07300   0.32376   1.000
    C308    C    0.17363   0.97712   0.45731   1.000
    C309    C    0.67357   0.97714   0.45737   1.000
    C310    C    0.12098   0.90472   0.52530   1.000
    C311    C    0.62093   0.90474   0.52541   1.000
    C312    C    0.11056   0.86101   0.61539   1.000
    C313    C    0.61047   0.86120   0.61551   1.000
    C314    C    0.05713   0.79412   0.67253   1.000
    C315    C    0.55708   0.79425   0.67268   1.000
    C316    C    0.01555   0.77143   0.63900   1.000
    C317    C    0.51560   0.77131   0.63918   1.000
    C318    C    0.03009   0.81509   0.54853   1.000
    C319    C    0.53016   0.81483   0.54870   1.000
    C320    C    0.21486   0.03845   0.54184   1.000
    C321    C    0.71489   0.03857   0.54177   1.000
    C322    C    0.15536   0.07015   0.57874   1.000
    C323    C    0.65545   0.07036   0.57867   1.000
    C324    C    0.12365   0.02973   0.66945   1.000
    C325    C    0.62374   0.02992   0.66938   1.000
    C326    C    0.06899   0.05924   0.70328   1.000
    C327    C    0.56911   0.05948   0.70321   1.000
    C328    C    0.04484   0.12974   0.64680   1.000
    C329    C    0.54500   0.13003   0.64673   1.000
    C330    C    0.07697   0.17045   0.55617   1.000
    C331    C    0.57714   0.17078   0.55611   1.000
    C332    C    0.13168   0.14125   0.52250   1.000
    C333    C    0.63182   0.14154   0.52244   1.000
    C334    C    0.48589   0.16126   0.68330   1.000
    C335    C    0.98573   0.16102   0.68344   1.000
    C336    C    0.44796   0.99475   0.53694   1.000
    C337    C    0.94673   0.99412   0.53760   1.000
    C338    C    0.37223   0.87391   0.62803   1.000
    C339    C    0.87068   0.87359   0.62871   1.000
    C340    C    0.32773   0.87292   0.50763   1.000
    C341    C    0.82653   0.87249   0.50806   1.000
    C342    C    0.05242   0.53147   0.46314   1.000
    C343    C    0.55202   0.53121   0.46300   1.000
    C344    C    0.12793   0.50129   0.37232   1.000
    C345    C    0.62780   0.50134   0.37223   1.000
    C346    C    0.17211   0.37977   0.49302   1.000
    C347    C    0.67197   0.37993   0.49298   1.000
    C348    C    0.28388   0.49461   0.53719   1.000
    C349    C    0.78392   0.49456   0.53714   1.000
    C350    C    0.31444   0.37384   0.62840   1.000
    C351    C    0.81437   0.37367   0.62844   1.000
    C352    C    0.41845   0.37269   0.50825   1.000
    C353    C    0.91844   0.37256   0.50820   1.000
    C354    C    0.21552   0.03156   0.46390   1.000
    C355    C    0.71549   0.03164   0.46394   1.000
    C356    C    0.18529   0.00000   0.37258   1.000
    C357    C    0.68523   0.00000   0.37267   1.000
    C358    C    0.08117   0.88020   0.49266   1.000
    C359    C    0.58120   0.88001   0.49281   1.000
    C360    C    0.31886   0.48280   0.04426   1.000
    C361    C    0.81755   0.48255   0.04446   1.000
    C362    C    0.32026   0.33176   0.09222   1.000
    C363    C    0.81996   0.33177   0.09208   1.000
    C364    C    0.37032   0.66644   0.64587   1.000
    C365    C    0.86989   0.66676   0.64601   1.000
    C366    C    0.29534   0.67202   0.75563   1.000
    C367    C    0.79397   0.67128   0.75569   1.000
    C368    C    0.41353   0.34672   0.71307   1.000
    C369    C    0.91346   0.34681   0.71290   1.000
    C370    C    0.37833   0.23700   0.85600   1.000
    C371    C    0.87809   0.23710   0.85590   1.000
    C372    C    0.27600   0.34687   0.37192   1.000
    C373    C    0.77587   0.34705   0.37178   1.000
    C374    C    0.34690   0.39390   0.23503   1.000
    C375    C    0.84622   0.39333   0.23470   1.000
    C376    C    0.18241   0.52641   0.95581   1.000
    C377    C    0.68161   0.52621   0.95622   1.000
    C378    C    0.18002   0.42329   0.90812   1.000
    C379    C    0.67969   0.42321   0.90831   1.000
    C380    C    0.13003   0.31208   0.35420   1.000
    C381    C    0.62939   0.31147   0.35469   1.000
    C382    C    0.20547   0.42693   0.24443   1.000
    C383    C    0.70458   0.42681   0.24504   1.000
    C384    C    0.08627   0.05897   0.28762   1.000
    C385    C    0.58631   0.05875   0.28766   1.000
    C386    C    0.12138   0.09216   0.14471   1.000
    C387    C    0.62153   0.09195   0.14475   1.000
    C388    C    0.22410   0.71835   0.62882   1.000
    C389    C    0.72288   0.71769   0.62952   1.000
    C390    C    0.15354   0.62795   0.76585   1.000
    C391    C    0.65187   0.62782   0.76640   1.000
    C392    C    0.15886   0.98276   0.04419   1.000
    C393    C    0.65888   0.98265   0.04434   1.000
    C394    C    0.13371   0.83182   0.09172   1.000
    C395    C    0.63369   0.83170   0.09202   1.000
    C396    C    0.30726   0.16663   0.64656   1.000
    C397    C    0.80706   0.16617   0.64662   1.000
    C398    C    0.32800   0.17146   0.75667   1.000
    C399    C    0.82792   0.17117   0.75659   1.000
    C400    C    0.23161   0.84700   0.71266   1.000
    C401    C    0.72988   0.84657   0.71324   1.000
    C402    C    0.19548   0.73694   0.85551   1.000
    C403    C    0.69506   0.73654   0.85607   1.000
    C404    C    0.03828   0.84637   0.37103   1.000
    C405    C    0.53827   0.84619   0.37120   1.000
    C406    C    0.03482   0.89340   0.23424   1.000
    C407    C    0.53479   0.89333   0.23440   1.000
    C408    C    0.34100   0.02703   0.95677   1.000
    C409    C    0.84096   0.02697   0.95685   1.000
    C410    C    0.36692   0.92374   0.90936   1.000
    C411    C    0.86685   0.92372   0.90939   1.000
    C412    C    0.19273   0.81246   0.35434   1.000
    C413    C    0.69269   0.81213   0.35450   1.000
    C414    C    0.17184   0.92735   0.24434   1.000
    C415    C    0.67185   0.92711   0.24453   1.000
    C416    C    0.26838   0.55916   0.28782   1.000
    C417    C    0.76834   0.55909   0.28780   1.000
    C418    C    0.30482   0.59262   0.14483   1.000
    C419    C    0.80439   0.59227   0.14496   1.000
    C420    C    0.46140   0.21732   0.62982   1.000
    C421    C    0.96131   0.21718   0.62984   1.000
    C422    C    0.46505   0.12802   0.76659   1.000
    C423    C    0.96484   0.12776   0.76665   1.000
    O424    O    0.15842   0.94670   0.03871   1.000
    O425    O    0.14584   0.87123   0.06248   1.000
    O426    O    0.17449   0.92175   0.98612   1.000
    O427    O    0.65842   0.94657   0.03890   1.000
    O428    O    0.64582   0.87110   0.06274   1.000
    O429    O    0.67443   0.92156   0.98638   1.000
    O430    O    0.82117   0.44655   0.03897   1.000
    O431    O    0.82237   0.37115   0.06278   1.000
    O432    O    0.83220   0.42170   0.98626   1.000
    O433    O    0.32218   0.44670   0.03888   1.000
    O434    O    0.32288   0.37118   0.06286   1.000
    O435    O    0.33283   0.42171   0.98630   1.000
    O436    O    0.14086   0.26968   0.06370   1.000
    O437    O    0.64086   0.26947   0.06383   1.000
    O438    O    0.82671   0.77011   0.06439   1.000
    O439    O    0.32674   0.77019   0.06441   1.000
    O440    O    0.13959   0.97428   0.10212   1.000
    O441    O    0.30875   0.47458   0.10216   1.000
    O442    O    0.63960   0.97410   0.10227   1.000
    O443    O    0.80740   0.47418   0.10245   1.000
    O444    O    0.15119   0.32538   0.07450   1.000
    O445    O    0.16351   0.38355   0.09175   1.000
    O446    O    0.16774   0.40732   0.01397   1.000
    O447    O    0.65101   0.32517   0.07471   1.000
    O448    O    0.66311   0.38337   0.09205   1.000
    O449    O    0.66736   0.40713   0.01422   1.000
    O450    O    0.31125   0.82592   0.07519   1.000
    O451    O    0.29055   0.88419   0.09233   1.000
    O452    O    0.32565   0.90789   0.01483   1.000
    O453    O    0.81124   0.82583   0.07522   1.000
    O454    O    0.79056   0.88408   0.09242   1.000
    O455    O    0.82564   0.90781   0.01490   1.000
    O456    O    0.13465   0.24639   0.13198   1.000
    O457    O    0.63462   0.24616   0.13210   1.000
    O458    O    0.79852   0.74669   0.13247   1.000
    O459    O    0.29853   0.74680   0.13248   1.000
    O460    O    0.17460   0.43148   0.11129   1.000
    O461    O    0.67399   0.43135   0.11163   1.000
    O462    O    0.26984   0.93223   0.11173   1.000
    O463    O    0.76987   0.93210   0.11186   1.000
    O464    O    0.16006   0.36299   0.16617   1.000
    O465    O    0.65959   0.36281   0.16648   1.000
    O466    O    0.25655   0.86362   0.16646   1.000
    O467    O    0.75658   0.86347   0.16654   1.000
    O468    O    0.12085   0.02898   0.15239   1.000
    O469    O    0.11574   0.10327   0.17479   1.000
    O470    O    0.62093   0.02875   0.15247   1.000
    O471    O    0.61586   0.10305   0.17483   1.000
    O472    O    0.30173   0.52949   0.15245   1.000
    O473    O    0.29543   0.60365   0.17496   1.000
    O474    O    0.80082   0.52904   0.15270   1.000
    O475    O    0.79515   0.60339   0.17503   1.000
    O476    O    0.32277   0.43013   0.19755   1.000
    O477    O    0.25206   0.44665   0.20225   1.000
    O478    O    0.07757   0.92960   0.19715   1.000
    O479    O    0.14608   0.94658   0.20220   1.000
    O480    O    0.57756   0.92944   0.19730   1.000
    O481    O    0.64609   0.94633   0.20237   1.000
    O482    O    0.82173   0.42957   0.19757   1.000
    O483    O    0.75091   0.44631   0.20274   1.000
    O484    O    0.11867   0.16380   0.19052   1.000
    O485    O    0.12967   0.22621   0.20666   1.000
    O486    O    0.61871   0.16357   0.19056   1.000
    O487    O    0.62959   0.22596   0.20674   1.000
    O488    O    0.78476   0.66398   0.19078   1.000
    O489    O    0.76596   0.72643   0.20686   1.000
    O490    O    0.28483   0.66413   0.19078   1.000
    O491    O    0.26596   0.72657   0.20685   1.000
    O492    O    0.09819   0.08667   0.24625   1.000
    O493    O    0.59825   0.08645   0.24629   1.000
    O494    O    0.27721   0.58691   0.24645   1.000
    O495    O    0.77712   0.58680   0.24645   1.000
    O496    O    0.14276   0.28464   0.22359   1.000
    O497    O    0.15777   0.34269   0.24245   1.000
    O498    O    0.24469   0.78511   0.22368   1.000
    O499    O    0.22058   0.84320   0.24252   1.000
    O500    O    0.74471   0.78495   0.22373   1.000
    O501    O    0.72059   0.84299   0.24263   1.000
    O502    O    0.64247   0.28442   0.22379   1.000
    O503    O    0.65720   0.34243   0.24282   1.000
    O504    O    0.94292   0.78109   0.26253   1.000
    O505    O    0.44283   0.78120   0.26264   1.000
    O506    O    0.92438   0.28128   0.26296   1.000
    O507    O    0.42465   0.28169   0.26295   1.000
    O508    O    0.02432   0.86855   0.27587   1.000
    O509    O    0.52429   0.86846   0.27603   1.000
    O510    O    0.83634   0.36869   0.27633   1.000
    O511    O    0.33684   0.36901   0.27664   1.000
    O512    O    0.12673   0.21357   0.27126   1.000
    O513    O    0.23647   0.71392   0.27124   1.000
    O514    O    0.73649   0.71375   0.27127   1.000
    O515    O    0.62662   0.21332   0.27134   1.000
    O516    O    0.18596   0.89154   0.25962   1.000
    O517    O    0.18380   0.39110   0.25965   1.000
    O518    O    0.68596   0.89130   0.25980   1.000
    O519    O    0.68300   0.39088   0.26019   1.000
    O520    O    0.61098   0.58940   0.28743   1.000
    O521    O    0.11112   0.58941   0.28754   1.000
    O522    O    0.24431   0.08982   0.28821   1.000
    O523    O    0.74427   0.08966   0.28824   1.000
    O524    O    0.40639   0.98322   0.29285   1.000
    O525    O    0.94651   0.48407   0.29332   1.000
    O526    O    0.44646   0.48427   0.29333   1.000
    O527    O    0.90588   0.98280   0.29335   1.000
    O528    O    0.14608   0.33367   0.31454   1.000
    O529    O    0.19640   0.83410   0.31462   1.000
    O530    O    0.69638   0.83381   0.31478   1.000
    O531    O    0.64541   0.33320   0.31501   1.000
    O532    O    0.86659   0.69310   0.30935   1.000
    O533    O    0.36648   0.69325   0.30943   1.000
    O534    O    0.47781   0.19366   0.30949   1.000
    O535    O    0.97730   0.19299   0.30985   1.000
    O536    O    0.10033   0.99748   0.32031   1.000
    O537    O    0.60035   0.99723   0.32043   1.000
    O538    O    0.73839   0.49737   0.32068   1.000
    O539    O    0.23843   0.49734   0.32063   1.000
    O540    O    0.90304   0.73005   0.31467   1.000
    O541    O    0.94247   0.76882   0.32596   1.000
    O542    O    0.40295   0.73015   0.31477   1.000
    O543    O    0.44240   0.76886   0.32608   1.000
    O544    O    0.43875   0.23054   0.31498   1.000
    O545    O    0.39379   0.26922   0.32646   1.000
    O546    O    0.93835   0.23010   0.31513   1.000
    O547    O    0.89350   0.26906   0.32637   1.000
    O548    O    0.98418   0.80979   0.33584   1.000
    O549    O    0.02605   0.84503   0.34426   1.000
    O550    O    0.48413   0.80974   0.33598   1.000
    O551    O    0.52602   0.84489   0.34443   1.000
    O552    O    0.84700   0.31012   0.33627   1.000
    O553    O    0.80117   0.34555   0.34487   1.000
    O554    O    0.34729   0.31016   0.33651   1.000
    O555    O    0.30139   0.34549   0.34508   1.000
    O556    O    0.32409   0.90546   0.34026   1.000
    O557    O    0.82356   0.90471   0.34048   1.000
    O558    O    0.50509   0.40555   0.34092   1.000
    O559    O    0.00516   0.40542   0.34099   1.000
    O560    O    0.61518   0.53702   0.34760   1.000
    O561    O    0.57901   0.58236   0.35068   1.000
    O562    O    0.11533   0.53702   0.34770   1.000
    O563    O    0.07928   0.58250   0.35085   1.000
    O564    O    0.21014   0.03656   0.34816   1.000
    O565    O    0.24460   0.08275   0.35165   1.000
    O566    O    0.71009   0.03650   0.34821   1.000
    O567    O    0.74457   0.08268   0.35165   1.000
    O568    O    0.36393   0.93844   0.34457   1.000
    O569    O    0.40557   0.97127   0.35654   1.000
    O570    O    0.86330   0.93765   0.34497   1.000
    O571    O    0.90482   0.97046   0.35713   1.000
    O572    O    0.46319   0.43856   0.34514   1.000
    O573    O    0.41568   0.47140   0.35701   1.000
    O574    O    0.96323   0.43839   0.34518   1.000
    O575    O    0.91571   0.47122   0.35701   1.000
    O576    O    0.85980   0.67324   0.37695   1.000
    O577    O    0.35971   0.67333   0.37704   1.000
    O578    O    0.45121   0.17361   0.37715   1.000
    O579    O    0.95064   0.17312   0.37745   1.000
    O580    O    0.07634   0.89117   0.36201   1.000
    O581    O    0.14985   0.96799   0.36278   1.000
    O582    O    0.09779   0.90809   0.42283   1.000
    O583    O    0.57633   0.89095   0.36219   1.000
    O584    O    0.64981   0.96786   0.36293   1.000
    O585    O    0.59780   0.90786   0.42300   1.000
    O586    O    0.24224   0.39119   0.36268   1.000
    O587    O    0.16820   0.46840   0.36288   1.000
    O588    O    0.19029   0.40765   0.42323   1.000
    O589    O    0.74215   0.39135   0.36267   1.000
    O590    O    0.66812   0.46850   0.36289   1.000
    O591    O    0.69020   0.40779   0.42327   1.000
    O592    O    0.93843   0.75101   0.39949   1.000
    O593    O    0.43838   0.75098   0.39962   1.000
    O594    O    0.86120   0.25128   0.39989   1.000
    O595    O    0.36150   0.25117   0.40006   1.000
    O596    O    0.44134   0.99655   0.37236   1.000
    O597    O    0.87215   0.49648   0.37273   1.000
    O598    O    0.37213   0.49667   0.37275   1.000
    O599    O    0.94045   0.99575   0.37315   1.000
    O600    O    0.31960   0.88708   0.40645   1.000
    O601    O    0.81882   0.88648   0.40626   1.000
    O602    O    0.47674   0.38703   0.40710   1.000
    O603    O    0.97677   0.38690   0.40717   1.000
    O604    O    0.53998   0.61738   0.37210   1.000
    O605    O    0.04037   0.61767   0.37228   1.000
    O606    O    0.77279   0.11772   0.37336   1.000
    O607    O    0.27280   0.11774   0.37344   1.000
    O608    O    0.61250   0.48905   0.41454   1.000
    O609    O    0.11269   0.48906   0.41463   1.000
    O610    O    0.17946   0.98856   0.41495   1.000
    O611    O    0.67940   0.98857   0.41502   1.000
    O612    O    0.55374   0.56162   0.42070   1.000
    O613    O    0.05412   0.56186   0.42087   1.000
    O614    O    0.73484   0.06200   0.42174   1.000
    O615    O    0.23487   0.06197   0.42174   1.000
    O616    O    0.40094   0.95294   0.43019   1.000
    O617    O    0.38378   0.45294   0.43065   1.000
    O618    O    0.88379   0.45277   0.43065   1.000
    O619    O    0.89992   0.95229   0.43084   1.000
    O620    O    0.50133   0.07203   0.43420   1.000
    O621    O    0.78132   0.57163   0.43432   1.000
    O622    O    0.28125   0.57168   0.43443   1.000
    O623    O    0.00041   0.07113   0.43500   1.000
    O624    O    0.81419   0.61371   0.44075   1.000
    O625    O    0.85573   0.65567   0.45040   1.000
    O626    O    0.31411   0.61376   0.44087   1.000
    O627    O    0.35566   0.65570   0.45049   1.000
    O628    O    0.46529   0.11400   0.44083   1.000
    O629    O    0.41899   0.15579   0.45068   1.000
    O630    O    0.96450   0.11338   0.44135   1.000
    O631    O    0.91840   0.15557   0.45089   1.000
    O632    O    0.89493   0.69467   0.46165   1.000
    O633    O    0.93074   0.73158   0.46736   1.000
    O634    O    0.39488   0.69464   0.46176   1.000
    O635    O    0.43072   0.73150   0.46748   1.000
    O636    O    0.87382   0.19477   0.46208   1.000
    O637    O    0.83534   0.23187   0.46774   1.000
    O638    O    0.37425   0.19467   0.46211   1.000
    O639    O    0.33565   0.23153   0.46798   1.000
    O640    O    0.11239   0.65886   0.48632   1.000
    O641    O    0.78128   0.83970   0.46654   1.000
    O642    O    0.81500   0.86787   0.47953   1.000
    O643    O    0.61182   0.65833   0.48643   1.000
    O644    O    0.28223   0.84011   0.46688   1.000
    O645    O    0.31606   0.86833   0.47965   1.000
    O646    O    0.64388   0.15865   0.48706   1.000
    O647    O    0.14373   0.15837   0.48713   1.000
    O648    O    0.48406   0.33989   0.46758   1.000
    O649    O    0.44397   0.36814   0.48029   1.000
    O650    O    0.98410   0.33980   0.46766   1.000
    O651    O    0.94398   0.36802   0.48030   1.000
    O652    O    0.57461   0.50399   0.45992   1.000
    O653    O    0.60658   0.44063   0.49101   1.000
    O654    O    0.07494   0.50415   0.46003   1.000
    O655    O    0.10681   0.44064   0.49109   1.000
    O656    O    0.19458   0.00434   0.46060   1.000
    O657    O    0.14730   0.94092   0.49130   1.000
    O658    O    0.69453   0.00439   0.46066   1.000
    O659    O    0.64725   0.94094   0.49139   1.000
    O660    O    0.50173   0.09321   0.47014   1.000
    O661    O    0.46693   0.03718   0.49806   1.000
    O662    O    0.76325   0.59291   0.47019   1.000
    O663    O    0.78419   0.53692   0.49817   1.000
    O664    O    0.26317   0.59295   0.47031   1.000
    O665    O    0.28414   0.53697   0.49827   1.000
    O666    O    0.00079   0.09231   0.47095   1.000
    O667    O    0.96584   0.03646   0.49875   1.000
    O668    O    0.53293   0.53467   0.50184   1.000
    O669    O    0.03341   0.53500   0.50199   1.000
    O670    O    0.21519   0.03500   0.50287   1.000
    O671    O    0.71519   0.03510   0.50286   1.000
    O672    O    0.35575   0.90136   0.49141   1.000
    O673    O    0.39324   0.93189   0.50928   1.000
    O674    O    0.89851   0.40106   0.49195   1.000
    O675    O    0.85225   0.43164   0.50971   1.000
    O676    O    0.39852   0.40120   0.49197   1.000
    O677    O    0.35227   0.43179   0.50970   1.000
    O678    O    0.85458   0.90087   0.49194   1.000
    O679    O    0.89198   0.93138   0.50993   1.000
    O680    O    0.85547   0.64498   0.51387   1.000
    O681    O    0.35541   0.64495   0.51397   1.000
    O682    O    0.38789   0.14485   0.51424   1.000
    O683    O    0.88732   0.14493   0.51433   1.000
    O684    O    0.10107   0.89246   0.50898   1.000
    O685    O    0.05563   0.84764   0.52060   1.000
    O686    O    0.60107   0.89237   0.50911   1.000
    O687    O    0.55568   0.84742   0.52076   1.000
    O688    O    0.64397   0.39221   0.50908   1.000
    O689    O    0.68359   0.34741   0.52106   1.000
    O690    O    0.14414   0.39211   0.50914   1.000
    O691    O    0.18370   0.34720   0.52111   1.000
    O692    O    0.30960   0.83112   0.57735   1.000
    O693    O    0.80814   0.83069   0.57791   1.000
    O694    O    0.90192   0.33062   0.57806   1.000
    O695    O    0.40195   0.33076   0.57803   1.000
    O696    O    0.01504   0.80665   0.52927   1.000
    O697    O    0.16451   0.69910   0.53288   1.000
    O698    O    0.66376   0.69847   0.53327   1.000
    O699    O    0.56870   0.19875   0.53355   1.000
    O700    O    0.06852   0.19840   0.53361   1.000
    O701    O    0.51563   0.80629   0.53345   1.000
    O702    O    0.49808   0.56275   0.52959   1.000
    O703    O    0.99865   0.56318   0.52975   1.000
    O704    O    0.71736   0.30644   0.53402   1.000
    O705    O    0.21742   0.30613   0.53407   1.000
    O706    O    0.73611   0.06323   0.53080   1.000
    O707    O    0.23605   0.06313   0.53090   1.000
    O708    O    0.12593   0.65641   0.53856   1.000
    O709    O    0.08122   0.60609   0.54979   1.000
    O710    O    0.62522   0.65584   0.53878   1.000
    O711    O    0.58055   0.60560   0.54985   1.000
    O712    O    0.60448   0.15616   0.53927   1.000
    O713    O    0.64364   0.10595   0.55056   1.000
    O714    O    0.10432   0.15585   0.53934   1.000
    O715    O    0.14352   0.10570   0.55062   1.000
    O716    O    0.59879   0.38273   0.57018   1.000
    O717    O    0.09898   0.38267   0.57025   1.000
    O718    O    0.11577   0.88286   0.57034   1.000
    O719    O    0.61570   0.88297   0.57046   1.000
    O720    O    0.42533   0.96436   0.54015   1.000
    O721    O    0.44635   0.98291   0.57917   1.000
    O722    O    0.80492   0.46415   0.54043   1.000
    O723    O    0.76460   0.48273   0.57934   1.000
    O724    O    0.30491   0.46424   0.54044   1.000
    O725    O    0.26457   0.48277   0.57940   1.000
    O726    O    0.92403   0.96382   0.54083   1.000
    O727    O    0.94506   0.98228   0.57985   1.000
    O728    O    0.53432   0.55405   0.55928   1.000
    O729    O    0.49833   0.50556   0.56556   1.000
    O730    O    0.03495   0.55449   0.55935   1.000
    O731    O    0.99887   0.50600   0.56575   1.000
    O732    O    0.68517   0.05447   0.56022   1.000
    O733    O    0.71803   0.00602   0.56671   1.000
    O734    O    0.18511   0.05430   0.56029   1.000
    O735    O    0.21801   0.00590   0.56642   1.000
    O736    O    0.38746   0.90394   0.58569   1.000
    O737    O    0.32019   0.40386   0.58605   1.000
    O738    O    0.82014   0.40370   0.58608   1.000
    O739    O    0.88601   0.90355   0.58638   1.000
    O740    O    0.02282   0.79326   0.59376   1.000
    O741    O    0.52288   0.79307   0.59394   1.000
    O742    O    0.67999   0.29316   0.59434   1.000
    O743    O    0.18006   0.29288   0.59440   1.000
    O744    O    0.13859   0.65071   0.60074   1.000
    O745    O    0.63769   0.65011   0.60109   1.000
    O746    O    0.56107   0.15040   0.60142   1.000
    O747    O    0.06091   0.15009   0.60149   1.000
    O748    O    0.54813   0.54975   0.62325   1.000
    O749    O    0.04891   0.55024   0.62323   1.000
    O750    O    0.63960   0.05014   0.62403   1.000
    O751    O    0.13950   0.04994   0.62410   1.000
    O752    O    0.55839   0.36863   0.62790   1.000
    O753    O    0.59409   0.32759   0.64393   1.000
    O754    O    0.05859   0.36863   0.62799   1.000
    O755    O    0.09423   0.32746   0.64398   1.000
    O756    O    0.12740   0.86867   0.62827   1.000
    O757    O    0.08384   0.82756   0.64396   1.000
    O758    O    0.62726   0.86895   0.62840   1.000
    O759    O    0.58378   0.82773   0.64410   1.000
    O760    O    0.46028   0.98553   0.62763   1.000
    O761    O    0.42121   0.93359   0.64924   1.000
    O762    O    0.72668   0.49001   0.62766   1.000
    O763    O    0.75497   0.43342   0.64944   1.000
    O764    O    0.22663   0.49000   0.62779   1.000
    O765    O    0.25498   0.43348   0.64949   1.000
    O766    O    0.95898   0.98521   0.62839   1.000
    O767    O    0.91978   0.93307   0.64995   1.000
    O768    O    0.33185   0.83161   0.63755   1.000
    O769    O    0.38495   0.88502   0.65255   1.000
    O770    O    0.34994   0.33133   0.63810   1.000
    O771    O    0.28957   0.38494   0.65289   1.000
    O772    O    0.84989   0.33118   0.63818   1.000
    O773    O    0.78951   0.38481   0.65289   1.000
    O774    O    0.83021   0.83124   0.63823   1.000
    O775    O    0.88343   0.88464   0.65326   1.000
    O776    O    0.25778   0.75383   0.63795   1.000
    O777    O    0.19874   0.69000   0.65572   1.000
    O778    O    0.75631   0.75329   0.63864   1.000
    O779    O    0.69747   0.68944   0.65635   1.000
    O780    O    0.42342   0.25307   0.63881   1.000
    O781    O    0.47364   0.18929   0.65656   1.000
    O782    O    0.92336   0.25293   0.63888   1.000
    O783    O    0.97352   0.18910   0.65664   1.000
    O784    O    0.03634   0.78278   0.65576   1.000
    O785    O    0.99441   0.74552   0.65990   1.000
    O786    O    0.53634   0.78278   0.65593   1.000
    O787    O    0.49450   0.74536   0.66012   1.000
    O788    O    0.63567   0.28282   0.65611   1.000
    O789    O    0.67545   0.24555   0.66061   1.000
    O790    O    0.13575   0.28257   0.65616   1.000
    O791    O    0.17548   0.24520   0.66067   1.000
    O792    O    0.35436   0.64847   0.68557   1.000
    O793    O    0.85375   0.64860   0.68551   1.000
    O794    O    0.15282   0.64599   0.66434   1.000
    O795    O    0.10623   0.59500   0.67423   1.000
    O796    O    0.65165   0.64546   0.66480   1.000
    O797    O    0.60520   0.59442   0.67457   1.000
    O798    O    0.30354   0.14851   0.68630   1.000
    O799    O    0.80337   0.14809   0.68634   1.000
    O800    O    0.51544   0.14564   0.66501   1.000
    O801    O    0.55706   0.09476   0.67497   1.000
    O802    O    0.01529   0.14538   0.66512   1.000
    O803    O    0.05692   0.09449   0.67504   1.000
    O804    O    0.26154   0.81816   0.67987   1.000
    O805    O    0.75981   0.81773   0.68050   1.000
    O806    O    0.39949   0.31777   0.68044   1.000
    O807    O    0.89944   0.31774   0.68041   1.000
    O808    O    0.06127   0.54485   0.68549   1.000
    O809    O    0.02222   0.50252   0.69079   1.000
    O810    O    0.56031   0.54431   0.68567   1.000
    O811    O    0.52134   0.50199   0.69079   1.000
    O812    O    0.59642   0.04470   0.68630   1.000
    O813    O    0.63283   0.00243   0.69164   1.000
    O814    O    0.09632   0.04449   0.68637   1.000
    O815    O    0.13275   0.00227   0.69173   1.000
    O816    O    0.05306   0.77663   0.70761   1.000
    O817    O    0.59323   0.27681   0.70772   1.000
    O818    O    0.55299   0.77682   0.70776   1.000
    O819    O    0.09332   0.27660   0.70777   1.000
    O820    O    0.38933   0.87727   0.71261   1.000
    O821    O    0.75537   0.37711   0.71287   1.000
    O822    O    0.25543   0.37721   0.71291   1.000
    O823    O    0.88778   0.87689   0.71333   1.000
    O824    O    0.16346   0.64480   0.72424   1.000
    O825    O    0.66197   0.64450   0.72479   1.000
    O826    O    0.47547   0.14464   0.72494   1.000
    O827    O    0.97528   0.14439   0.72505   1.000
    O828    O    0.87294   0.48511   0.72912   1.000
    O829    O    0.37315   0.48496   0.72925   1.000
    O830    O    0.26335   0.98493   0.72953   1.000
    O831    O    0.76286   0.98454   0.72976   1.000
    O832    O    0.07528   0.54381   0.73766   1.000
    O833    O    0.57417   0.54326   0.73795   1.000
    O834    O    0.55661   0.04364   0.73842   1.000
    O835    O    0.05650   0.04341   0.73850   1.000
    O836    O    0.22281   0.83320   0.75407   1.000
    O837    O    0.90149   0.33315   0.75430   1.000
    O838    O    0.40160   0.33304   0.75444   1.000
    O839    O    0.72150   0.83281   0.75461   1.000
    O840    O    0.81579   0.65085   0.74035   1.000
    O841    O    0.84200   0.58546   0.75762   1.000
    O842    O    0.31687   0.65126   0.74045   1.000
    O843    O    0.34268   0.58550   0.75779   1.000
    O844    O    0.31391   0.15093   0.74135   1.000
    O845    O    0.27932   0.08541   0.75839   1.000
    O846    O    0.81380   0.15060   0.74133   1.000
    O847    O    0.77916   0.08504   0.75848   1.000
    O848    O    0.24899   0.64902   0.79783   1.000
    O849    O    0.74746   0.64843   0.79814   1.000
    O850    O    0.85366   0.14853   0.79874   1.000
    O851    O    0.35379   0.14869   0.79878   1.000
    O852    O    0.85698   0.50856   0.77673   1.000
    O853    O    0.87004   0.43318   0.79373   1.000
    O854    O    0.35741   0.50849   0.77680   1.000
    O855    O    0.37028   0.43304   0.79380   1.000
    O856    O    0.25519   0.00845   0.77716   1.000
    O857    O    0.23394   0.93302   0.79392   1.000
    O858    O    0.75489   0.00808   0.77734   1.000
    O859    O    0.73349   0.93267   0.79422   1.000
    O860    O    0.17810   0.62699   0.80294   1.000
    O861    O    0.67641   0.62670   0.80350   1.000
    O862    O    0.42231   0.12697   0.80374   1.000
    O863    O    0.92212   0.12683   0.80378   1.000
    O864    O    0.83979   0.52958   0.83404   1.000
    O865    O    0.34042   0.52961   0.83408   1.000
    O866    O    0.24337   0.02956   0.83446   1.000
    O867    O    0.74327   0.02923   0.83461   1.000
    O868    O    0.21516   0.85448   0.80988   1.000
    O869    O    0.20475   0.77817   0.82549   1.000
    O870    O    0.88100   0.35461   0.80997   1.000
    O871    O    0.88380   0.27830   0.82579   1.000
    O872    O    0.38118   0.35448   0.81006   1.000
    O873    O    0.38400   0.27819   0.82591   1.000
    O874    O    0.71447   0.85414   0.81031   1.000
    O875    O    0.70409   0.77779   0.82603   1.000
    O876    O    0.86511   0.37877   0.86832   1.000
    O877    O    0.20147   0.87865   0.86831   1.000
    O878    O    0.36539   0.37864   0.86844   1.000
    O879    O    0.70109   0.87835   0.86867   1.000
    O880    O    0.19906   0.68148   0.84777   1.000
    O881    O    0.19253   0.57622   0.89792   1.000
    O882    O    0.69801   0.68107   0.84833   1.000
    O883    O    0.69128   0.57590   0.89841   1.000
    O884    O    0.87875   0.18150   0.84840   1.000
    O885    O    0.86018   0.07643   0.89888   1.000
    O886    O    0.37895   0.18146   0.84845   1.000
    O887    O    0.36029   0.07647   0.89884   1.000
    O888    O    0.82533   0.54322   0.88887   1.000
    O889    O    0.83640   0.47576   0.90843   1.000
    O890    O    0.32614   0.54332   0.88888   1.000
    O891    O    0.33702   0.47578   0.90848   1.000
    O892    O    0.23012   0.04328   0.88926   1.000
    O893    O    0.20947   0.97578   0.90859   1.000
    O894    O    0.73015   0.04300   0.88938   1.000
    O895    O    0.70941   0.97551   0.90882   1.000
    O896    O    0.17760   0.43335   0.93743   1.000
    O897    O    0.67720   0.43322   0.93767   1.000
    O898    O    0.35458   0.93385   0.93857   1.000
    O899    O    0.85453   0.93381   0.93861   1.000
    O900    O    0.18882   0.90030   0.92567   1.000
    O901    O    0.17337   0.83375   0.93640   1.000
    O902    O    0.84867   0.40033   0.92572   1.000
    O903    O    0.85894   0.33382   0.93661   1.000
    O904    O    0.34912   0.40027   0.92584   1.000
    O905    O    0.35926   0.33370   0.93674   1.000
    O906    O    0.68863   0.90005   0.92600   1.000
    O907    O    0.67307   0.83351   0.93681   1.000
    O908    O    0.17879   0.48491   0.96128   1.000
    O909    O    0.67816   0.48472   0.96162   1.000
    O910    O    0.34162   0.98549   0.96227   1.000
    O911    O    0.84158   0.98543   0.96234   1.000
    O912    O    0.29340   0.73067   0.70135   1.000
    O913    O    0.79186   0.73008   0.70173   1.000
    O914    O    0.20697   0.43122   0.29894   1.000
    O915    O    0.70650   0.43123   0.29929   1.000
    O916    O    0.35672   0.23014   0.70223   1.000
    O917    O    0.85666   0.22993   0.70226   1.000
    O918    O    0.14312   0.93166   0.29867   1.000
    O919    O    0.64312   0.93142   0.29886   1.000
loop_
    _geom_bond_atom_site_label_1
    _geom_bond_atom_site_label_2
    _geom_bond_distance
    _geom_bond_site_symmetry_2
    _ccdc_geom_bond_type
    C248   O424      0.65679      .   S
    C392   O424      0.65679      .   S
    C248   O425      0.61912      .   S
    C394   O425      0.61912      .   S
    C248   O426      0.75643  1_554   S
    C242   O426      0.75643      .   S
    C249   O427      0.65672      .   S
    C393   O427      0.65672      .   S
    C249   O428      0.61916      .   S
    C395   O428      0.61916      .   S
    C249   O429      0.75605  1_554   S
    C243   O429      0.75605      .   S
    C149   O430      0.65690      .   S
    C361   O430      0.65690      .   S
    C149   O431      0.61903      .   S
    C363   O431      0.61903      .   S
    C149   O432      0.75605  1_554   S
    C143   O432      0.75605      .   S
    C148   O433      0.65689      .   S
    C360   O433      0.65689      .   S
    C148   O434      0.61900      .   S
    C362   O434      0.61900      .   S
    C148   O435      0.75611  1_554   S
    C142   O435      0.75611      .   S
    C48    O436      0.54380      .   S
    C190   O436      0.54380      .   S
    C49    O437      0.54448      .   S
    C191   O437      0.54448      .   S
    C109   O438      0.54448      .   S
    C291   O438      0.54448      .   S
    C108   O439      0.54448      .   S
    C290   O439      0.54448      .   S
    C392   O440      0.95478      .   S
    C10    O440      0.95478      .   S
    C360   O441      0.95390      .   S
    C2     O441      0.95390      .   S
    C393   O442      0.95424      .   S
    C11    O442      0.95424      .   S
    C361   O443      0.95436      .   S
    C3     O443      0.95436      .   S
    C192   O444      0.69943      .   S
    C190   O444      0.69943      .   S
    C192   O445      0.69925      .   S
    C194   O445      0.69925      .   S
    C192   O446      0.75612      .   S
    C198   O446      0.75612  1_556   S
    C193   O447      0.69920      .   S
    C191   O447      0.69920      .   S
    C193   O448      0.70001      .   S
    C195   O448      0.70001      .   S
    C193   O449      0.75602      .   S
    C199   O449      0.75602  1_556   S
    C292   O450      0.69924      .   S
    C290   O450      0.69924      .   S
    C292   O451      0.70014      .   S
    C294   O451      0.70014      .   S
    C292   O452      0.75599      .   S
    C298   O452      0.75599  1_556   S
    C293   O453      0.69930      .   S
    C291   O453      0.69930      .   S
    C293   O454      0.70016      .   S
    C295   O454      0.70016      .   S
    C293   O455      0.75608      .   S
    C299   O455      0.75608  1_556   S
    C190   O456      0.70335      .   S
    C188   O456      0.70335      .   S
    C191   O457      0.70241      .   S
    C189   O457      0.70241      .   S
    C291   O458      0.70265      .   S
    C289   O458      0.70265      .   S
    C290   O459      0.70264      .   S
    C288   O459      0.70264      .   S
    C50    O460      0.54391      .   S
    C194   O460      0.54391      .   S
    C51    O461      0.54373      .   S
    C195   O461      0.54373      .   S
    C110   O462      0.54378      .   S
    C294   O462      0.54378      .   S
    C111   O463      0.54378      .   S
    C295   O463      0.54378      .   S
    C194   O464      0.70009      .   S
    C196   O464      0.70009      .   S
    C195   O465      0.69955      .   S
    C197   O465      0.69955      .   S
    C294   O466      0.69964      .   S
    C296   O466      0.69964      .   S
    C295   O467      0.69943      .   S
    C297   O467      0.69943      .   S
    C386   O468      1.00181      .   S
    C10    O468      1.00181  1_565   S
    C386   O469      0.63591      .   S
    C202   O469      0.63591      .   S
    C387   O470      1.00187      .   S
    C11    O470      1.00187  1_565   S
    C387   O471      0.63583      .   S
    C203   O471      0.63583      .   S
    C418   O472      1.00122      .   S
    C2     O472      1.00122      .   S
    C418   O473      0.63596      .   S
    C302   O473      0.63596      .   S
    C419   O474      1.00245      .   S
    C3     O474      1.00245      .   S
    C419   O475      0.63584      .   S
    C303   O475      0.63584      .   S
    C2     O476      0.98511      .   S
    C374   O476      0.98511      .   S
    C2     O477      1.03338      .   S
    C382   O477      1.03338      .   S
    C10    O478      0.98509      .   S
    C406   O478      0.98509      .   S
    C10    O479      1.03357      .   S
    C414   O479      1.03357      .   S
    C11    O480      0.98497      .   S
    C407   O480      0.98497      .   S
    C11    O481      1.03392      .   S
    C415   O481      1.03392      .   S
    C3     O482      0.98754      .   S
    C375   O482      0.98754      .   S
    C3     O483      1.02971      .   S
    C383   O483      1.02971      .   S
    C188   O484      0.74949      .   S
    C202   O484      0.74949      .   S
    C188   O485      0.69981      .   S
    C186   O485      0.69981      .   S
    C189   O486      0.74920      .   S
    C203   O486      0.74920      .   S
    C189   O487      0.70017      .   S
    C187   O487      0.70017      .   S
    C289   O488      0.74945      .   S
    C303   O488      0.74945      .   S
    C289   O489      0.69982      .   S
    C287   O489      0.69982      .   S
    C288   O490      0.74941      .   S
    C302   O490      0.74941      .   S
    C288   O491      0.69978      .   S
    C286   O491      0.69978      .   S
    C202   O492      0.64305      .   S
    C384   O492      0.64305      .   S
    C203   O493      0.64301      .   S
    C385   O493      0.64301      .   S
    C302   O494      0.64281      .   S
    C416   O494      0.64281      .   S
    C303   O495      0.64251      .   S
    C417   O495      0.64251      .   S
    C196   O496      0.69960      .   S
    C186   O496      0.69960      .   S
    C196   O497      0.74425      .   S
    C200   O497      0.74425      .   S
    C296   O498      0.69957      .   S
    C286   O498      0.69957      .   S
    C296   O499      0.74447      .   S
    C300   O499      0.74447      .   S
    C297   O500      0.69952      .   S
    C287   O500      0.69952      .   S
    C297   O501      0.74479      .   S
    C301   O501      0.74479      .   S
    C197   O502      0.69955      .   S
    C187   O502      0.69955      .   S
    C197   O503      0.74428      .   S
    C201   O503      0.74428      .   S
    C101   O504      0.54459      .   S
    C277   O504      0.54459      .   S
    C100   O505      0.54453      .   S
    C276   O505      0.54453      .   S
    C41    O506      0.54462      .   S
    C177   O506      0.54462      .   S
    C40    O507      0.54461      .   S
    C176   O507      0.54461      .   S
    C406   O508      0.63862      .   S
    C284   O508      0.63862      .   S
    C407   O509      0.63864      .   S
    C285   O509      0.63864      .   S
    C375   O510      0.63831      .   S
    C185   O510      0.63831      .   S
    C374   O511      0.63840      .   S
    C184   O511      0.63840      .   S
    C186   O512      0.54393      .   S
    C46    O512      0.54393      .   S
    C286   O513      0.54392      .   S
    C106   O513      0.54392      .   S
    C287   O514      0.54393      .   S
    C107   O514      0.54393      .   S
    C187   O515      0.54343      .   S
    C47    O515      0.54343      .   S
    C414   O516      0.66137      .   S
    C300   O516      0.66137      .   S
    C382   O517      0.66137      .   S
    C200   O517      0.66137      .   S
    C415   O518      0.66137      .   S
    C301   O518      0.66137      .   S
    C383   O519      0.66161      .   S
    C201   O519      0.66161      .   S
    C55    O520      0.54235      .   S
    C207   O520      0.54235      .   S
    C54    O521      0.54262      .   S
    C206   O521      0.54262      .   S
    C114   O522      0.54234      .   S
    C306   O522      0.54234      .   S
    C115   O523      0.54237      .   S
    C307   O523      0.54237      .   S
    C28    O524      0.54502  1_545   S
    C164   O524      0.54502      .   S
    C89    O525      0.54546      .   S
    C265   O525      0.54546      .   S
    C88    O526      0.54487      .   S
    C264   O526      0.54487      .   S
    C29    O527      0.54537  1_545   S
    C165   O527      0.54537      .   S
    C200   O528      0.62162      .   S
    C380   O528      0.62162      .   S
    C300   O529      0.62199      .   S
    C412   O529      0.62199      .   S
    C301   O530      0.62194      .   S
    C413   O530      0.62194      .   S
    C201   O531      0.62173      .   S
    C381   O531      0.62173      .   S
    C99    O532      0.54494      .   S
    C275   O532      0.54494      .   S
    C98    O533      0.54499      .   S
    C274   O533      0.54499      .   S
    C38    O534      0.54495      .   S
    C174   O534      0.54495      .   S
    C39    O535      0.54500      .   S
    C175   O535      0.54500      .   S
    C384   O536      1.03288  1_545   S
    C12    O536      1.03288      .   S
    C385   O537      1.03312  1_545   S
    C13    O537      1.03312      .   S
    C417   O538      1.03174      .   S
    C5     O538      1.03174      .   S
    C416   O539      1.03304      .   S
    C4     O539      1.03304      .   S
    C277   O540      0.69725      .   S
    C275   O540      0.69725      .   S
    C277   O541      0.70175      .   S
    C279   O541      0.70175      .   S
    C276   O542      0.69722      .   S
    C274   O542      0.69722      .   S
    C276   O543      0.70182      .   S
    C278   O543      0.70182      .   S
    C176   O544      0.69718      .   S
    C174   O544      0.69718      .   S
    C176   O545      0.70176      .   S
    C178   O545      0.70176      .   S
    C177   O546      0.69738      .   S
    C175   O546      0.69738      .   S
    C177   O547      0.70180      .   S
    C179   O547      0.70180      .   S
    C284   O548      0.75133  1_455   S
    C279   O548      0.75133      .   S
    C284   O549      0.63637      .   S
    C404   O549      0.63637      .   S
    C285   O550      0.75108      .   S
    C278   O550      0.75108      .   S
    C285   O551      0.63634      .   S
    C405   O551      0.63634      .   S
    C185   O552      0.75130      .   S
    C179   O552      0.75130      .   S
    C185   O553      0.63664      .   S
    C373   O553      0.63664      .   S
    C184   O554      0.75107      .   S
    C178   O554      0.75107      .   S
    C184   O555      0.63644      .   S
    C372   O555      0.63644      .   S
    C30    O556      0.54381      .   S
    C166   O556      0.54381      .   S
    C31    O557      0.54391      .   S
    C167   O557      0.54391      .   S
    C91    O558      0.54387      .   S
    C266   O558      0.54387      .   S
    C90    O559      0.54406      .   S
    C267   O559      0.54406  1_655   S
    C207   O560      0.68535      .   S
    C345   O560      0.68535      .   S
    C207   O561      0.68832      .   S
    C205   O561      0.68832      .   S
    C206   O562      0.68537      .   S
    C344   O562      0.68537      .   S
    C206   O563      0.68855      .   S
    C204   O563      0.68855      .   S
    C306   O564      0.69402      .   S
    C356   O564      0.69402      .   S
    C306   O565      0.68854      .   S
    C304   O565      0.68854      .   S
    C307   O566      0.69357      .   S
    C357   O566      0.69357      .   S
    C307   O567      0.68850      .   S
    C305   O567      0.68850      .   S
    C164   O568      0.69649      .   S
    C166   O568      0.69649      .   S
    C164   O569      0.69688      .   S
    C162   O569      0.69688      .   S
    C165   O570      0.69648      .   S
    C167   O570      0.69648      .   S
    C165   O571      0.69683      .   S
    C163   O571      0.69683      .   S
    C264   O572      0.69649      .   S
    C266   O572      0.69649      .   S
    C264   O573      0.69679      .   S
    C262   O573      0.69679      .   S
    C265   O574      0.69651      .   S
    C267   O574      0.69651      .   S
    C265   O575      0.69685      .   S
    C263   O575      0.69685      .   S
    C275   O576      0.70079      .   S
    C273   O576      0.70079      .   S
    C274   O577      0.70079      .   S
    C272   O577      0.70079      .   S
    C174   O578      0.70081      .   S
    C172   O578      0.70081      .   S
    C175   O579      0.70083      .   S
    C173   O579      0.70083      .   S
    C12    O580      1.05611      .   S
    C404   O580      1.05611      .   S
    C12    O581      1.05850      .   S
    C356   O581      1.05850  1_545   S
    C12    O582      1.07194      .   S
    C358   O582      1.07194      .   S
    C13    O583      1.05590      .   S
    C405   O583      1.05590      .   S
    C13    O584      1.05864      .   S
    C357   O584      1.05864  1_545   S
    C13    O585      1.07160      .   S
    C359   O585      1.07160      .   S
    C4     O586      1.05498      .   S
    C372   O586      1.05498      .   S
    C4     O587      1.06685      .   S
    C344   O587      1.06685      .   S
    C4     O588      1.07135      .   S
    C346   O588      1.07135      .   S
    C5     O589      1.05388      .   S
    C373   O589      1.05388      .   S
    C5     O590      1.06694      .   S
    C345   O590      1.06694      .   S
    C5     O591      1.07019      .   S
    C347   O591      1.07019      .   S
    C279   O592      0.70080      .   S
    C281   O592      0.70080      .   S
    C278   O593      0.70073      .   S
    C280   O593      0.70073      .   S
    C179   O594      0.70073      .   S
    C181   O594      0.70073      .   S
    C178   O595      0.70070      .   S
    C180   O595      0.70070      .   S
    C26    O596      0.54282  1_545   S
    C162   O596      0.54282      .   S
    C87    O597      0.54274      .   S
    C263   O597      0.54274      .   S
    C86    O598      0.54269      .   S
    C262   O598      0.54269      .   S
    C27    O599      0.54282  1_545   S
    C163   O599      0.54282      .   S
    C166   O600      0.69570      .   S
    C168   O600      0.69570      .   S
    C167   O601      0.68935      .   S
    C169   O601      0.68935      .   S
    C266   O602      0.69569      .   S
    C268   O602      0.69569      .   S
    C267   O603      0.69572      .   S
    C269   O603      0.69572      .   S
    C53    O604      0.54162      .   S
    C205   O604      0.54162      .   S
    C52    O605      0.54163      .   S
    C204   O605      0.54163      .   S
    C113   O606      0.54163      .   S
    C305   O606      0.54163      .   S
    C112   O607      0.54165      .   S
    C304   O607      0.54165      .   S
    C345   O608      0.67110      .   S
    C209   O608      0.67110      .   S
    C344   O609      0.67110      .   S
    C208   O609      0.67110      .   S
    C356   O610      0.67464  1_545   S
    C308   O610      0.67464      .   S
    C357   O611      0.67444  1_545   S
    C309   O611      0.67444      .   S
    C205   O612      0.69172      .   S
    C343   O612      0.69172      .   S
    C204   O613      0.69144      .   S
    C342   O613      0.69144      .   S
    C305   O614      0.69146      .   S
    C355   O614      0.69146      .   S
    C304   O615      0.69116      .   S
    C354   O615      0.69116      .   S
    C162   O616      0.69986      .   S
    C160   O616      0.69986      .   S
    C262   O617      0.69998      .   S
    C260   O617      0.69998      .   S
    C263   O618      0.69992      .   S
    C261   O618      0.69992      .   S
    C163   O619      0.69988      .   S
    C161   O619      0.69988      .   S
    C37    O620      0.54879      .   S
    C170   O620      0.54879      .   S
    C97    O621      0.54824      .   S
    C271   O621      0.54824      .   S
    C96    O622      0.54884      .   S
    C270   O622      0.54884      .   S
    C36    O623      0.54886      .   S
    C171   O623      0.54886  1_655   S
    C273   O624      0.75732      .   S
    C271   O624      0.75732      .   S
    C273   O625      0.70025      .   S
    C283   O625      0.70025      .   S
    C272   O626      0.75722      .   S
    C270   O626      0.75722      .   S
    C272   O627      0.70017      .   S
    C282   O627      0.70017      .   S
    C172   O628      0.75717      .   S
    C170   O628      0.75717      .   S
    C172   O629      0.70024      .   S
    C182   O629      0.70024      .   S
    C173   O630      0.75729      .   S
    C171   O630      0.75729      .   S
    C173   O631      0.70022      .   S
    C183   O631      0.70022      .   S
    C281   O632      0.69572      .   S
    C283   O632      0.69572      .   S
    C281   O633      0.54306      .   S
    C103   O633      0.54306      .   S
    C280   O634      0.69574      .   S
    C282   O634      0.69574      .   S
    C280   O635      0.54305      .   S
    C102   O635      0.54305      .   S
    C181   O636      0.69573      .   S
    C183   O636      0.69573      .   S
    C181   O637      0.54309      .   S
    C43    O637      0.54309      .   S
    C180   O638      0.69576      .   S
    C182   O638      0.69576      .   S
    C180   O639      0.54314      .   S
    C42    O639      0.54314      .   S
    C74    O640      0.54478      .   S
    C232   O640      0.54478      .   S
    C169   O641      0.54218      .   S
    C33    O641      0.54218      .   S
    C169   O642      0.67980      .   S
    C341   O642      0.67980      .   S
    C75    O643      0.54474      .   S
    C233   O643      0.54474      .   S
    C168   O644      0.54297      .   S
    C32    O644      0.54297      .   S
    C168   O645      0.67213      .   S
    C340   O645      0.67213      .   S
    C135   O646      0.54475      .   S
    C333   O646      0.54475      .   S
    C134   O647      0.54474      .   S
    C332   O647      0.54474      .   S
    C268   O648      0.54298      .   S
    C93    O648      0.54298      .   S
    C268   O649      0.67217      .   S
    C352   O649      0.67217      .   S
    C269   O650      0.54312      .   S
    C92    O650      0.54312      .   S
    C269   O651      0.67170      .   S
    C353   O651      0.67170      .   S
    C209   O652      0.68782      .   S
    C343   O652      0.68782      .   S
    C209   O653      0.72985      .   S
    C211   O653      0.72985      .   S
    C208   O654      0.68784      .   S
    C342   O654      0.68784      .   S
    C208   O655      0.72984      .   S
    C210   O655      0.72984      .   S
    C308   O656      0.68764  1_565   S
    C354   O656      0.68764      .   S
    C308   O657      0.72977      .   S
    C310   O657      0.72977      .   S
    C309   O658      0.68798  1_565   S
    C355   O658      0.68798      .   S
    C309   O659      0.72980      .   S
    C311   O659      0.72980      .   S
    C170   O660      0.54943      .   S
    C35    O660      0.54943      .   S
    C170   O661      0.73721      .   S
    C336   O661      0.73721  1_565   S
    C271   O662      0.54972      .   S
    C95    O662      0.54972      .   S
    C271   O663      0.73764      .   S
    C349   O663      0.73764      .   S
    C270   O664      0.54954      .   S
    C94    O664      0.54954      .   S
    C270   O665      0.73727      .   S
    C348   O665      0.73727      .   S
    C171   O666      0.54976  1_655   S
    C34    O666      0.54976      .   S
    C171   O667      0.73726      .   S
    C337   O667      0.73726  1_565   S
    C343   O668      0.73713      .   S
    C221   O668      0.73713      .   S
    C342   O669      0.73737      .   S
    C220   O669      0.73737      .   S
    C354   O670      0.73780      .   S
    C320   O670      0.73780      .   S
    C355   O671      0.73727      .   S
    C321   O671      0.73727      .   S
    C160   O672      0.68200      .   S
    C340   O672      0.68200      .   S
    C160   O673      0.72989      .   S
    C158   O673      0.72989      .   S
    C261   O674      0.68173      .   S
    C353   O674      0.68173      .   S
    C261   O675      0.72980      .   S
    C259   O675      0.72980      .   S
    C260   O676      0.68199      .   S
    C352   O676      0.68199      .   S
    C260   O677      0.72952      .   S
    C258   O677      0.72952      .   S
    C161   O678      0.68205      .   S
    C341   O678      0.68205      .   S
    C161   O679      0.72971      .   S
    C159   O679      0.72971      .   S
    C283   O680      0.54473      .   S
    C105   O680      0.54473      .   S
    C282   O681      0.54473      .   S
    C104   O681      0.54473      .   S
    C182   O682      0.54482      .   S
    C44    O682      0.54482      .   S
    C183   O683      0.54473      .   S
    C45    O683      0.54473      .   S
    C358   O684      0.68201      .   S
    C310   O684      0.68201      .   S
    C358   O685      0.67216      .   S
    C318   O685      0.67216      .   S
    C359   O686      0.68198      .   S
    C311   O686      0.68198      .   S
    C359   O687      0.67213      .   S
    C319   O687      0.67213      .   S
    C347   O688      0.68200      .   S
    C211   O688      0.68200      .   S
    C347   O689      0.67212      .   S
    C219   O689      0.67212      .   S
    C346   O690      0.68199      .   S
    C210   O690      0.68199      .   S
    C346   O691      0.67216      .   S
    C218   O691      0.67216      .   S
    C340   O692      1.07000      .   S
    C0     O692      1.07000      .   S
    C341   O693      1.07197      .   S
    C1     O693      1.07197      .   S
    C353   O694      1.07221      .   S
    C9     O694      1.07221      .   S
    C352   O695      1.07099      .   S
    C8     O695      1.07099      .   S
    C123   O696      0.61153      .   S
    C318   O696      0.61153      .   S
    C72    O697      0.54306      .   S
    C230   O697      0.54306      .   S
    C73    O698      0.54304      .   S
    C231   O698      0.54304      .   S
    C133   O699      0.54307      .   S
    C331   O699      0.54307      .   S
    C132   O700      0.54309      .   S
    C330   O700      0.54309      .   S
    C122   O701      0.54293      .   S
    C319   O701      0.54293      .   S
    C64    O702      0.54953      .   S
    C221   O702      0.54953      .   S
    C65    O703      0.54973      .   S
    C220   O703      0.54973  1_455   S
    C63    O704      0.54301      .   S
    C219   O704      0.54301      .   S
    C62    O705      0.54300      .   S
    C218   O705      0.54300      .   S
    C125   O706      0.54955      .   S
    C321   O706      0.54955      .   S
    C124   O707      0.54956      .   S
    C320   O707      0.54956      .   S
    C232   O708      0.69571      .   S
    C230   O708      0.69571      .   S
    C232   O709      0.70020      .   S
    C222   O709      0.70020      .   S
    C233   O710      0.69565      .   S
    C231   O710      0.69565      .   S
    C233   O711      0.70021      .   S
    C223   O711      0.70021      .   S
    C333   O712      0.69570      .   S
    C331   O712      0.69570      .   S
    C333   O713      0.70016      .   S
    C323   O713      0.70016      .   S
    C332   O714      0.69573      .   S
    C330   O714      0.69573      .   S
    C332   O715      0.70021      .   S
    C322   O715      0.70021      .   S
    C211   O716      0.69985      .   S
    C213   O716      0.69985      .   S
    C210   O717      0.69984      .   S
    C212   O717      0.69984      .   S
    C310   O718      0.69989      .   S
    C312   O718      0.69989      .   S
    C311   O719      0.69990      .   S
    C313   O719      0.69990      .   S
    C336   O720      0.68779      .   S
    C158   O720      0.68779      .   S
    C336   O721      0.69143      .   S
    C154   O721      0.69143      .   S
    C349   O722      0.68786      .   S
    C259   O722      0.68786      .   S
    C349   O723      0.69138      .   S
    C255   O723      0.69138      .   S
    C348   O724      0.68788      .   S
    C258   O724      0.68788      .   S
    C348   O725      0.69143      .   S
    C254   O725      0.69143      .   S
    C337   O726      0.68765      .   S
    C159   O726      0.68765      .   S
    C337   O727      0.69146      .   S
    C155   O727      0.69146      .   S
    C221   O728      0.75718      .   S
    C223   O728      0.75718      .   S
    C221   O729      0.54876      .   S
    C66    O729      0.54876      .   S
    C220   O730      0.75736      .   S
    C222   O730      0.75736      .   S
    C220   O731      0.54888  1_455   S
    C67    O731      0.54888      .   S
    C321   O732      0.75717      .   S
    C323   O732      0.75717      .   S
    C321   O733      0.54885      .   S
    C127   O733      0.54885  1_565   S
    C320   O734      0.75722      .   S
    C322   O734      0.75722      .   S
    C320   O735      0.54631      .   S
    C126   O735      0.54631  1_565   S
    C158   O736      0.67109      .   S
    C338   O736      0.67109      .   S
    C258   O737      0.67110      .   S
    C350   O737      0.67110      .   S
    C259   O738      0.67121      .   S
    C351   O738      0.67121      .   S
    C159   O739      0.67110      .   S
    C339   O739      0.67110      .   S
    C318   O740      0.69569      .   S
    C316   O740      0.69569      .   S
    C319   O741      0.69576      .   S
    C317   O741      0.69576      .   S
    C219   O742      0.69566      .   S
    C217   O742      0.69566      .   S
    C218   O743      0.69568      .   S
    C216   O743      0.69568      .   S
    C230   O744      0.70083      .   S
    C228   O744      0.70083      .   S
    C231   O745      0.70074      .   S
    C229   O745      0.70074      .   S
    C331   O746      0.70074      .   S
    C329   O746      0.70074      .   S
    C330   O747      0.70081      .   S
    C328   O747      0.70081      .   S
    C223   O748      0.70080      .   S
    C225   O748      0.70080      .   S
    C222   O749      0.70079      .   S
    C224   O749      0.70079      .   S
    C323   O750      0.70084      .   S
    C325   O750      0.70084      .   S
    C322   O751      0.70084      .   S
    C324   O751      0.70084      .   S
    C213   O752      0.54256      .   S
    C57    O752      0.54256      .   S
    C213   O753      0.69688      .   S
    C215   O753      0.69688      .   S
    C212   O754      0.54275      .   S
    C56    O754      0.54275      .   S
    C212   O755      0.69684      .   S
    C214   O755      0.69684      .   S
    C312   O756      0.54273      .   S
    C116   O756      0.54273      .   S
    C312   O757      0.69683      .   S
    C314   O757      0.69683      .   S
    C313   O758      0.54271      .   S
    C117   O758      0.54271      .   S
    C313   O759      0.69682      .   S
    C315   O759      0.69682      .   S
    C154   O760      0.49145      .   S
    C22    O760      0.49145  1_545   S
    C154   O761      0.68853      .   S
    C156   O761      0.68853      .   S
    C255   O762      0.54151      .   S
    C83    O762      0.54151      .   S
    C255   O763      0.68857      .   S
    C257   O763      0.68857      .   S
    C254   O764      0.54165      .   S
    C82    O764      0.54165      .   S
    C254   O765      0.68854      .   S
    C256   O765      0.68854      .   S
    C155   O766      0.49597      .   S
    C23    O766      0.49597  1_545   S
    C155   O767      0.68860      .   S
    C157   O767      0.68860      .   S
    C338   O768      1.06681      .   S
    C0     O768      1.06681      .   S
    C338   O769      0.68533      .   S
    C156   O769      0.68533      .   S
    C350   O770      1.06718      .   S
    C8     O770      1.06718      .   S
    C350   O771      0.68561      .   S
    C256   O771      0.68561      .   S
    C351   O772      1.06744      .   S
    C9     O772      1.06744      .   S
    C351   O773      0.68538      .   S
    C257   O773      0.68538      .   S
    C339   O774      1.06899      .   S
    C1     O774      1.06899      .   S
    C339   O775      0.68539      .   S
    C157   O775      0.68539      .   S
    C388   O776      1.05570      .   S
    C0     O776      1.05570      .   S
    C388   O777      0.63659      .   S
    C234   O777      0.63659      .   S
    C389   O778      1.05246      .   S
    C1     O778      1.05246      .   S
    C389   O779      0.63655      .   S
    C235   O779      0.63655      .   S
    C420   O780      1.05528      .   S
    C8     O780      1.05528      .   S
    C420   O781      0.63598      .   S
    C334   O781      0.63598      .   S
    C421   O782      1.05497      .   S
    C9     O782      1.05497      .   S
    C421   O783      0.63642      .   S
    C335   O783      0.63642      .   S
    C316   O784      0.69653      .   S
    C314   O784      0.69653      .   S
    C316   O785      0.54401  1_455   S
    C121   O785      0.54401      .   S
    C317   O786      0.69646      .   S
    C315   O786      0.69646      .   S
    C317   O787      0.54385      .   S
    C120   O787      0.54385      .   S
    C217   O788      0.69650      .   S
    C215   O788      0.69650      .   S
    C217   O789      0.54388      .   S
    C61    O789      0.54388      .   S
    C216   O790      0.69647      .   S
    C214   O790      0.69647      .   S
    C216   O791      0.54387      .   S
    C60    O791      0.54387      .   S
    C364   O792      0.62178      .   S
    C150   O792      0.62178      .   S
    C365   O793      0.61968      .   S
    C151   O793      0.61968      .   S
    C228   O794      0.75142      .   S
    C234   O794      0.75142      .   S
    C228   O795      0.70176      .   S
    C226   O795      0.70176      .   S
    C229   O796      0.75093      .   S
    C235   O796      0.75093      .   S
    C229   O797      0.70173      .   S
    C227   O797      0.70173      .   S
    C396   O798      0.62200      .   S
    C250   O798      0.62200      .   S
    C397   O799      0.62194      .   S
    C251   O799      0.62194      .   S
    C329   O800      0.75082      .   S
    C334   O800      0.75082      .   S
    C329   O801      0.70176      .   S
    C327   O801      0.70176      .   S
    C328   O802      0.75130      .   S
    C335   O802      0.75130  1_655   S
    C328   O803      0.70177      .   S
    C326   O803      0.70177      .   S
    C0     O804      1.03156      .   S
    C400   O804      1.03156      .   S
    C1     O805      1.03096      .   S
    C401   O805      1.03096      .   S
    C8     O806      1.03311      .   S
    C368   O806      1.03311      .   S
    C9     O807      1.03202      .   S
    C369   O807      1.03202      .   S
    C224   O808      0.69682      .   S
    C226   O808      0.69682      .   S
    C224   O809      0.54492      .   S
    C68    O809      0.54492      .   S
    C225   O810      0.69727      .   S
    C227   O810      0.69727      .   S
    C225   O811      0.54491      .   S
    C69    O811      0.54491      .   S
    C325   O812      0.69721      .   S
    C327   O812      0.69721      .   S
    C325   O813      0.54497      .   S
    C129   O813      0.54497  1_565   S
    C324   O814      0.69725      .   S
    C326   O814      0.69725      .   S
    C324   O815      0.54505      .   S
    C128   O815      0.54505  1_565   S
    C314   O816      0.54490      .   S
    C118   O816      0.54490      .   S
    C215   O817      0.54486      .   S
    C59    O817      0.54486      .   S
    C315   O818      0.54485      .   S
    C119   O818      0.54485      .   S
    C214   O819      0.54489      .   S
    C58    O819      0.54489      .   S
    C156   O820      0.54237      .   S
    C24    O820      0.54237      .   S
    C257   O821      0.54231      .   S
    C85    O821      0.54231      .   S
    C256   O822      0.54238      .   S
    C84    O822      0.54238      .   S
    C157   O823      0.54234      .   S
    C25    O823      0.54234      .   S
    C234   O824      0.63834      .   S
    C390   O824      0.63834      .   S
    C235   O825      0.63853      .   S
    C391   O825      0.63853      .   S
    C334   O826      0.63920      .   S
    C422   O826      0.63920      .   S
    C335   O827      0.63854      .   S
    C423   O827      0.63854      .   S
    C17    O828      0.54387      .   S
    C137   O828      0.54387      .   S
    C16    O829      0.54354      .   S
    C136   O829      0.54354      .   S
    C76    O830      0.54390      .   S
    C236   O830      0.54390      .   S
    C77    O831      0.54387      .   S
    C237   O831      0.54387      .   S
    C226   O832      0.54531      .   S
    C70    O832      0.54531      .   S
    C227   O833      0.54459      .   S
    C71    O833      0.54459      .   S
    C327   O834      0.54466      .   S
    C131   O834      0.54466      .   S
    C326   O835      0.54464      .   S
    C130   O835      0.54464      .   S
    C400   O836      0.64297      .   S
    C252   O836      0.64297      .   S
    C369   O837      0.64363      .   S
    C153   O837      0.64363      .   S
    C368   O838      0.64311      .   S
    C152   O838      0.64311      .   S
    C401   O839      0.64309      .   S
    C253   O839      0.64309      .   S
    C151   O840      0.66280      .   S
    C367   O840      0.66280      .   S
    C151   O841      0.74558      .   S
    C147   O841      0.74558      .   S
    C150   O842      0.66161      .   S
    C366   O842      0.66161      .   S
    C150   O843      0.74431      .   S
    C146   O843      0.74431      .   S
    C250   O844      0.66136      .   S
    C398   O844      0.66136      .   S
    C250   O845      0.74455      .   S
    C246   O845      0.74455      .   S
    C251   O846      0.66138      .   S
    C399   O846      0.66138      .   S
    C251   O847      0.74480      .   S
    C247   O847      0.74480      .   S
    C366   O848      1.02941      .   S
    C6     O848      1.02941      .   S
    C367   O849      1.03347      .   S
    C7     O849      1.03347      .   S
    C399   O850      1.03335      .   S
    C15    O850      1.03335      .   S
    C398   O851      1.03363      .   S
    C14    O851      1.03363      .   S
    C137   O852      0.69965      .   S
    C147   O852      0.69965      .   S
    C137   O853      0.69990      .   S
    C139   O853      0.69990      .   S
    C136   O854      0.69980      .   S
    C146   O854      0.69980      .   S
    C136   O855      0.69964      .   S
    C138   O855      0.69964      .   S
    C236   O856      0.69971  1_565   S
    C246   O856      0.69971      .   S
    C236   O857      0.69982      .   S
    C238   O857      0.69982      .   S
    C237   O858      0.69978  1_565   S
    C247   O858      0.69978      .   S
    C237   O859      0.69989      .   S
    C239   O859      0.69989      .   S
    C390   O860      0.98738      .   S
    C6     O860      0.98738      .   S
    C391   O861      0.98654      .   S
    C7     O861      0.98654      .   S
    C422   O862      0.98514      .   S
    C14    O862      0.98514      .   S
    C423   O863      0.98520      .   S
    C15    O863      0.98520      .   S
    C147   O864      0.69949      .   S
    C145   O864      0.69949      .   S
    C146   O865      0.69952      .   S
    C144   O865      0.69952      .   S
    C246   O866      0.69963      .   S
    C244   O866      0.69963      .   S
    C247   O867      0.69973      .   S
    C245   O867      0.69973      .   S
    C252   O868      0.74942      .   S
    C238   O868      0.74942      .   S
    C252   O869      0.63586      .   S
    C402   O869      0.63586      .   S
    C153   O870      0.74943      .   S
    C139   O870      0.74943      .   S
    C153   O871      0.63581      .   S
    C371   O871      0.63581      .   S
    C152   O872      0.74883      .   S
    C138   O872      0.74883      .   S
    C152   O873      0.63566      .   S
    C370   O873      0.63566      .   S
    C253   O874      0.74928      .   S
    C239   O874      0.74928      .   S
    C253   O875      0.63582      .   S
    C403   O875      0.63582      .   S
    C139   O876      0.70210      .   S
    C141   O876      0.70210      .   S
    C238   O877      0.70263      .   S
    C240   O877      0.70263      .   S
    C138   O878      0.70338      .   S
    C140   O878      0.70338      .   S
    C239   O879      0.70264      .   S
    C241   O879      0.70264      .   S
    C6     O880      1.00203      .   S
    C402   O880      1.00203      .   S
    C6     O881      0.95428      .   S
    C376   O881      0.95428      .   S
    C7     O882      1.00198      .   S
    C403   O882      1.00198      .   S
    C7     O883      0.95373      .   S
    C377   O883      0.95373      .   S
    C15    O884      1.00168      .   S
    C371   O884      1.00168      .   S
    C15    O885      0.95470      .   S
    C409   O885      0.95470      .   S
    C14    O886      1.00119      .   S
    C370   O886      1.00119      .   S
    C14    O887      0.95435      .   S
    C408   O887      0.95435      .   S
    C145   O888      0.54376      .   S
    C21    O888      0.54376      .   S
    C145   O889      0.70002      .   S
    C143   O889      0.70002      .   S
    C144   O890      0.54371      .   S
    C20    O890      0.54371      .   S
    C144   O891      0.70003      .   S
    C142   O891      0.70003      .   S
    C244   O892      0.54377      .   S
    C80    O892      0.54377      .   S
    C244   O893      0.70022  1_545   S
    C242   O893      0.70022      .   S
    C245   O894      0.54374      .   S
    C81    O894      0.54374      .   S
    C245   O895      0.70028  1_545   S
    C243   O895      0.70028      .   S
    C378   O896      0.61903      .   S
    C198   O896      0.61903      .   S
    C379   O897      0.61902      .   S
    C199   O897      0.61902      .   S
    C410   O898      0.61911      .   S
    C298   O898      0.61911      .   S
    C411   O899      0.61911      .   S
    C299   O899      0.61911      .   S
    C240   O900      0.69907      .   S
    C242   O900      0.69907      .   S
    C240   O901      0.54448      .   S
    C78    O901      0.54448      .   S
    C141   O902      0.69961      .   S
    C143   O902      0.69961      .   S
    C141   O903      0.54470      .   S
    C19    O903      0.54470      .   S
    C140   O904      0.69917      .   S
    C142   O904      0.69917      .   S
    C140   O905      0.54445      .   S
    C18    O905      0.54445      .   S
    C241   O906      0.69916      .   S
    C243   O906      0.69916      .   S
    C241   O907      0.54447      .   S
    C79    O907      0.54447      .   S
    C376   O908      0.65693      .   S
    C198   O908      0.65693      .   S
    C377   O909      0.65688      .   S
    C199   O909      0.65688      .   S
    C408   O910      0.65699  1_545   S
    C298   O910      0.65699      .   S
    C409   O911      0.65701  1_545   S
    C299   O911      0.65701      .   S
    C366   O912      1.04030      .   S
    C0     O912      1.04030      .   S
    C367   O913      1.03995      .   S
    C1     O913      1.03995      .   S
    C382   O914      1.04069      .   S
    C4     O914      1.04069      .   S
    C383   O915      1.04029      .   S
    C5     O915      1.04029      .   S
    C398   O916      1.04076      .   S
    C8     O916      1.04076      .   S
    C399   O917      1.04098      .   S
    C9     O917      1.04098      .   S
    C414   O918      1.04047      .   S
    C12    O918      1.04047      .   S
    C415   O919      1.04048      .   S
    C13    O919      1.04048      .   S
