# CIF file generated by openbabel 2.4.90, see http://openbabel.sf.net
data_I
_chemical_name_common ''
_cell_length_a 22.353
_cell_length_b 16.76
_cell_length_c 18.262
_cell_angle_alpha 62.678
_cell_angle_beta 72.41
_cell_angle_gamma 90.054
_space_group_name_H-M_alt 'P 1'
_space_group_name_Hall 'P 1'
loop_
    _symmetry_equiv_pos_as_xyz
    x,y,z
loop_
    _atom_site_label
    _atom_site_type_symbol
    _atom_site_fract_x
    _atom_site_fract_y
    _atom_site_fract_z
    _atom_site_occupancy
    N0      N    0.58270   0.56041   0.37302   1.000
    N1      N    0.76976   0.43375   0.62719   1.000
    N2      N    0.14726   0.30489   0.14888   1.000
    N3      N    0.85254   0.45415   0.85141   1.000
    N4      N    0.41744   0.93261   0.62697   1.000
    N5      N    0.26977   0.43382   0.62724   1.000
    N6      N    0.72977   0.06051   0.37388   1.000
    N7      N    0.22981   0.06054   0.37387   1.000
    N8      N    0.91604   0.93220   0.62769   1.000
    N9      N    0.72195   0.95378   0.85186   1.000
    N10     N    0.08297   0.56054   0.37315   1.000
    N11     N    0.77777   0.80529   0.14929   1.000
    N12     N    0.27776   0.80542   0.14925   1.000
    N13     N    0.64701   0.30469   0.14906   1.000
    N14     N    0.22220   0.95409   0.85160   1.000
    N15     N    0.35299   0.45410   0.85149   1.000
    Zr16    Zr   0.38172   0.15626   0.77832   1.000
    O17     O    0.37440   0.28027   0.80455   1.000
    O18     O    0.31624   0.08800   0.79166   1.000
    O19     O    0.47737   0.13583   0.70503   1.000
    O20     O    0.34579   0.26942   0.70549   1.000
    O21     O    0.40166   0.26720   0.63199   1.000
    O22     O    0.34171   0.00646   0.93018   1.000
    Zr23    Zr   0.88160   0.15613   0.77833   1.000
    O24     O    0.84571   0.26930   0.70551   1.000
    O25     O    0.90160   0.26706   0.63201   1.000
    O26     O    0.81608   0.08777   0.79175   1.000
    O27     O    0.87419   0.28026   0.80451   1.000
    O28     O    0.84165   0.00634   0.93021   1.000
    O29     O    0.97725   0.13565   0.70506   1.000
    Zr30    Zr   0.61820   0.93349   0.22271   1.000
    O31     O    0.68369   0.87881   0.20933   1.000
    O32     O    0.65819   0.93558   0.07091   1.000
    O33     O    0.52232   0.83987   0.29600   1.000
    O34     O    0.62553   0.08381   0.19626   1.000
    O35     O    0.59812   0.89820   0.36904   1.000
    O36     O    0.65399   0.97383   0.29556   1.000
    Zr37    Zr   0.26988   0.43376   0.22285   1.000
    O38     O    0.27559   0.58427   0.19643   1.000
    O39     O    0.32916   0.34017   0.29625   1.000
    O40     O    0.21120   0.37878   0.20926   1.000
    O41     O    0.19773   0.47412   0.29543   1.000
    O42     O    0.21696   0.39823   0.36921   1.000
    O43     O    0.30639   0.43583   0.07087   1.000
    Zr44    Zr   0.76933   0.43356   0.22295   1.000
    O45     O    0.71072   0.37856   0.20945   1.000
    O46     O    0.82868   0.33997   0.29630   1.000
    O47     O    0.80585   0.43574   0.07090   1.000
    O48     O    0.69737   0.47401   0.29545   1.000
    O49     O    0.71663   0.39821   0.36926   1.000
    O50     O    0.77530   0.58410   0.19649   1.000
    Zr51    Zr   0.11818   0.93368   0.22255   1.000
    O52     O    0.02234   0.83997   0.29586   1.000
    O53     O    0.12557   0.08401   0.19613   1.000
    O54     O    0.15827   0.93580   0.07071   1.000
    O55     O    0.18368   0.87899   0.20922   1.000
    O56     O    0.15401   0.97397   0.29544   1.000
    O57     O    0.09809   0.89836   0.36868   1.000
    Zr58    Zr   0.23057   0.65634   0.77753   1.000
    O59     O    0.19403   0.50622   0.92948   1.000
    O60     O    0.30261   0.76922   0.70490   1.000
    O61     O    0.28317   0.76728   0.63129   1.000
    O62     O    0.22462   0.78031   0.80414   1.000
    O63     O    0.17113   0.63600   0.70426   1.000
    O64     O    0.28920   0.58807   0.79109   1.000
    Zr65    Zr   0.72950   0.65603   0.77793   1.000
    O66     O    0.69335   0.50597   0.92978   1.000
    O67     O    0.67011   0.63558   0.70460   1.000
    O68     O    0.80131   0.76888   0.70544   1.000
    O69     O    0.78207   0.76688   0.63171   1.000
    O70     O    0.72386   0.78000   0.80451   1.000
    O71     O    0.78839   0.58792   0.79122   1.000
loop_
    _geom_bond_atom_site_label_1
    _geom_bond_atom_site_label_2
    _geom_bond_distance
    _geom_bond_site_symmetry_2
    _ccdc_geom_bond_type
    Zr16   O17       2.33311      .   S
    N15    O17       3.39099      .   S
    Zr16   O18       1.74241      .   S
    N14    O18       2.64559  1_565   S
    Zr16   O19       2.27426      .   S
    N6     O19       7.50974      .   S
    Zr16   O20       2.08417      .   S
    N5     O20       3.22240      .   S
    Zr16   O21       2.34819      .   S
    N5     O21       4.05530      .   S
    Zr16   O22       2.62668      .   S
    N12    O22       3.68264  1_564   S
    Zr23   O24       2.08363      .   S
    N1     O24       3.22214      .   S
    Zr23   O25       2.34782      .   S
    N1     O25       4.05511      .   S
    Zr23   O26       1.74358      .   S
    N9     O26       2.64718  1_565   S
    Zr23   O27       2.33442      .   S
    N3     O27       3.39201      .   S
    Zr23   O28       2.62678      .   S
    N11    O28       3.68277  1_564   S
    Zr23   O29       2.27441      .   S
    N7     O29       7.51017  1_455   S
    Zr30   O31       1.74189      .   S
    N11    O31       2.64481      .   S
    Zr30   O32       2.62634      .   S
    N9     O32       3.68245  1_556   S
    Zr30   O33       2.27565      .   S
    N5     O33       7.50135      .   S
    Zr30   O34       2.33276  1_565   S
    N13    O34       3.39047      .   S
    Zr30   O35       2.34878      .   S
    N6     O35       4.05342  1_545   S
    Zr30   O36       2.08225      .   S
    N6     O36       3.22370  1_545   S
    Zr37   O38       2.33600      .   S
    N12    O38       3.39490      .   S
    Zr37   O39       2.27166      .   S
    N4     O39       7.50923  1_565   S
    Zr37   O40       1.74245      .   S
    N2     O40       2.64470      .   S
    Zr37   O41       2.08523      .   S
    N10    O41       3.22281      .   S
    Zr37   O42       2.35045      .   S
    N10    O42       4.05473      .   S
    Zr37   O43       2.62918      .   S
    N15    O43       3.68522  1_556   S
    Zr44   O45       1.74036      .   S
    N13    O45       2.64119      .   S
    Zr44   O46       2.27235      .   S
    N8     O46       7.50632  1_565   S
    Zr44   O47       2.62974      .   S
    N3     O47       3.68589  1_556   S
    Zr44   O48       2.08292      .   S
    N0     O48       3.22002      .   S
    Zr44   O49       2.34957      .   S
    N0     O49       4.05212      .   S
    Zr44   O50       2.33624      .   S
    N11    O50       3.39507      .   S
    Zr51   O52       2.27572      .   S
    N1     O52       7.50362  1_655   S
    Zr51   O53       2.33311  1_565   S
    N2     O53       3.39046      .   S
    Zr51   O54       2.62706      .   S
    N14    O54       3.68293  1_556   S
    Zr51   O55       1.74195      .   S
    N12    O55       2.64494      .   S
    Zr51   O56       2.08259      .   S
    N7     O56       3.22447  1_545   S
    Zr51   O57       2.34490      .   S
    N7     O57       4.05662  1_545   S
    Zr58   O59       2.62951      .   S
    N2     O59       3.68549  1_554   S
    Zr58   O60       2.08126      .   S
    N4     O60       3.21161      .   S
    Zr58   O61       2.34774      .   S
    N4     O61       4.04133      .   S
    Zr58   O62       2.33647      .   S
    N14    O62       3.39505      .   S
    Zr58   O63       2.27252      .   S
    N10    O63       7.50093      .   S
    Zr58   O64       1.73988      .   S
    N15    O64       2.64094      .   S
    Zr65   O66       2.62831      .   S
    N13    O66       3.68430  1_554   S
    Zr65   O67       2.27334      .   S
    N0     O67       7.49812      .   S
    Zr65   O68       2.07788      .   S
    N8     O68       3.20987      .   S
    Zr65   O69       2.34685      .   S
    N8     O69       4.03905      .   S
    Zr65   O70       2.33607      .   S
    N9     O70       3.39454      .   S
    Zr65   O71       1.74246      .   S
    N3     O71       2.64343      .   S
