# CIF file generated by openbabel 2.4.90, see http://openbabel.sf.net
data_I
_chemical_name_common ''
_cell_length_a 18.405
_cell_length_b 18.418
_cell_length_c 18.418
_cell_angle_alpha 60.252
_cell_angle_beta 60.269
_cell_angle_gamma 60.269
_space_group_name_H-M_alt 'P 1'
_space_group_name_Hall 'P 1'
loop_
    _symmetry_equiv_pos_as_xyz
    x,y,z
loop_
    _atom_site_label
    _atom_site_type_symbol
    _atom_site_fract_x
    _atom_site_fract_y
    _atom_site_fract_z
    _atom_site_occupancy
    C0      C    0.38906   0.38897   0.11117   1.000
    C1      C    0.11091   0.11093   0.38860   1.000
    C2      C    0.38878   0.11088   0.11088   1.000
    C3      C    0.11113   0.38902   0.38905   1.000
    C4      C    0.38904   0.11116   0.38900   1.000
    C5      C    0.11091   0.38867   0.11094   1.000
    C6      C    0.61095   0.61100   0.88880   1.000
    C7      C    0.88911   0.88903   0.61130   1.000
    C8      C    0.88911   0.61129   0.88905   1.000
    C9      C    0.61098   0.88880   0.61099   1.000
    C10     C    0.88889   0.61094   0.61094   1.000
    C11     C    0.61124   0.88909   0.88910   1.000
