# CIF file generated by openbabel 2.4.90, see http://openbabel.sf.net
data_I
_chemical_name_common ''
_cell_length_a 23.722
_cell_length_b 13.826
_cell_length_c 21.392
_cell_angle_alpha 89.955
_cell_angle_beta 89.997
_cell_angle_gamma 90.003
_space_group_name_H-M_alt 'P 1'
_space_group_name_Hall 'P 1'
loop_
    _symmetry_equiv_pos_as_xyz
    x,y,z
loop_
    _atom_site_label
    _atom_site_type_symbol
    _atom_site_fract_x
    _atom_site_fract_y
    _atom_site_fract_z
    _atom_site_occupancy
    H0      H    0.10374   0.53436   0.90030   1.000
    H1      H    0.60375   0.53548   0.90002   1.000
    H2      H    0.20799   0.54056   0.89783   1.000
    H3      H    0.70799   0.54160   0.89743   1.000
    H4      H    0.20792   0.25631   0.98346   1.000
    H5      H    0.70793   0.25709   0.98271   1.000
    H6      H    0.10354   0.26403   0.98285   1.000
    H7      H    0.60355   0.26483   0.98217   1.000
    H8      H    0.10371   0.46958   0.10504   1.000
    H9      H    0.60375   0.46945   0.10535   1.000
    H10     H    0.20797   0.46436   0.10889   1.000
    H11     H    0.70799   0.46416   0.10905   1.000
    H12     H    0.20818   0.73821   0.01010   1.000
    H13     H    0.70817   0.73773   0.00993   1.000
    H14     H    0.10376   0.73163   0.01194   1.000
    H15     H    0.60374   0.73100   0.01160   1.000
    H16     H    0.39653   0.96533   0.40001   1.000
    H17     H    0.89658   0.96628   0.39948   1.000
    H18     H    0.29229   0.95886   0.39753   1.000
    H19     H    0.79231   0.95983   0.39683   1.000
    H20     H    0.29211   0.24312   0.48287   1.000
    H21     H    0.79207   0.24275   0.48401   1.000
    H22     H    0.39643   0.23577   0.48221   1.000
    H23     H    0.89641   0.23543   0.48337   1.000
    H24     H    0.39625   0.03142   0.60318   1.000
    H25     H    0.89626   0.03157   0.60340   1.000
    H26     H    0.29197   0.03728   0.60671   1.000
    H27     H    0.79202   0.03744   0.60701   1.000
    H28     H    0.29156   0.76007   0.51217   1.000
    H29     H    0.79156   0.76044   0.51220   1.000
    H30     H    0.39594   0.76698   0.51326   1.000
    H31     H    0.89592   0.76711   0.51352   1.000
    H32     H    0.39629   0.46421   0.09796   1.000
    H33     H    0.89635   0.46448   0.09861   1.000
    H34     H    0.29199   0.45757   0.10007   1.000
    H35     H    0.79207   0.45780   0.10083   1.000
    H36     H    0.29192   0.74524   0.01939   1.000
    H37     H    0.79189   0.74430   0.01841   1.000
    H38     H    0.39631   0.73766   0.01984   1.000
    H39     H    0.89628   0.73671   0.01870   1.000
    H40     H    0.39631   0.53060   0.89597   1.000
    H41     H    0.89636   0.53204   0.89628   1.000
    H42     H    0.29205   0.53635   0.89257   1.000
    H43     H    0.79213   0.53784   0.89276   1.000
    H44     H    0.29176   0.26019   0.98867   1.000
    H45     H    0.79173   0.26051   0.98740   1.000
    H46     H    0.39615   0.26682   0.98699   1.000
    H47     H    0.89611   0.26720   0.98602   1.000
    H48     H    0.10339   0.03365   0.60054   1.000
    H49     H    0.60343   0.03454   0.60003   1.000
    H50     H    0.20766   0.04008   0.60320   1.000
    H51     H    0.70768   0.04102   0.60253   1.000
    H52     H    0.20790   0.75721   0.51595   1.000
    H53     H    0.70787   0.75685   0.51706   1.000
    H54     H    0.10356   0.76454   0.51659   1.000
    H55     H    0.60354   0.76418   0.51770   1.000
    H56     H    0.10370   0.96840   0.39648   1.000
    H57     H    0.60372   0.96855   0.39678   1.000
    H58     H    0.20795   0.96252   0.39294   1.000
    H59     H    0.70800   0.96270   0.39324   1.000
    H60     H    0.20841   0.23947   0.48780   1.000
    H61     H    0.70841   0.23983   0.48788   1.000
    H62     H    0.10406   0.23281   0.48649   1.000
    H63     H    0.60403   0.23292   0.48678   1.000
    H64     H    0.00019   0.15379   0.10263   1.000
    H65     H    0.50197   0.15385   0.10267   1.000
    H66     H    0.00000   0.08857   0.21252   1.000
    H67     H    0.50189   0.08868   0.21257   1.000
    H68     H    0.99986   0.37796   0.28419   1.000
    H69     H    0.49830   0.37805   0.28410   1.000
    H70     H    0.99983   0.44409   0.17555   1.000
    H71     H    0.49849   0.44413   0.17552   1.000
    H72     H    0.99979   0.84617   0.89734   1.000
    H73     H    0.50000   0.84613   0.89730   1.000
    H74     H    0.99985   0.91138   0.78740   1.000
    H75     H    0.49979   0.91128   0.78740   1.000
    H76     H    0.00000   0.62198   0.71579   1.000
    H77     H    0.50031   0.62185   0.71579   1.000
    H78     H    0.00000   0.55587   0.82443   1.000
    H79     H    0.50007   0.55579   0.82444   1.000
    H80     H    0.99986   0.34545   0.60299   1.000
    H81     H    0.50002   0.34541   0.60299   1.000
    H82     H    0.99990   0.41094   0.71276   1.000
    H83     H    0.49980   0.41088   0.71277   1.000
    H84     H    0.00002   0.12177   0.78503   1.000
    H85     H    0.50027   0.12169   0.78500   1.000
    H86     H    0.00000   0.05533   0.67648   1.000
    H87     H    0.50002   0.05528   0.67646   1.000
    H88     H    0.00013   0.65448   0.39698   1.000
    H89     H    0.50020   0.65450   0.39696   1.000
    H90     H    0.00000   0.58899   0.28721   1.000
    H91     H    0.50043   0.58904   0.28719   1.000
    C92     C    0.49997   0.19120   0.32040   1.000
    C93     C    0.99993   0.66009   0.93359   1.000
    C94     C    0.49999   0.66006   0.93359   1.000
    C95     C    0.99992   0.69741   0.86787   1.000
    H96     H    0.99996   0.87817   0.21495   1.000
    H97     H    0.49949   0.87824   0.21496   1.000
    H98     H    0.99996   0.94461   0.32350   1.000
    H99     H    0.49976   0.94464   0.32352   1.000
    C100    C    0.12890   0.47454   0.91835   1.000
    C101    C    0.62890   0.47557   0.91798   1.000
    C102    C    0.18745   0.47689   0.91716   1.000
    C103    C    0.68744   0.47789   0.91671   1.000
    C104    C    0.21864   0.39853   0.94076   1.000
    C105    C    0.71865   0.39945   0.94020   1.000
    C106    C    0.18741   0.32043   0.96469   1.000
    C107    C    0.68742   0.32127   0.96401   1.000
    C108    C    0.12886   0.32350   0.96440   1.000
    C109    C    0.62887   0.32435   0.96384   1.000
    C110    C    0.12891   0.52757   0.08468   1.000
    C111    C    0.62893   0.52733   0.08482   1.000
    C112    C    0.18746   0.52546   0.08629   1.000
    C113    C    0.68748   0.52519   0.08638   1.000
    C114    C    0.21873   0.60118   0.05942   1.000
    C115    C    0.71874   0.60083   0.05900   1.000
    C116    C    0.18758   0.67669   0.03212   1.000
    C117    C    0.68758   0.67623   0.03201   1.000
    C118    C    0.12903   0.67392   0.03261   1.000
    C119    C    0.62904   0.67344   0.03249   1.000
    C120    C    0.37132   0.02510   0.41801   1.000
    C121    C    0.87133   0.02574   0.41782   1.000
    C122    C    0.31277   0.02260   0.41679   1.000
    C123    C    0.81278   0.02326   0.41653   1.000
    N124    N    0.40016   0.60071   0.05863   1.000
    N125    N    0.90018   0.60037   0.05836   1.000
    N126    N    0.40010   0.39893   0.94175   1.000
    N127    N    0.90012   0.39984   0.94145   1.000
    N128    N    0.09960   0.89931   0.55828   1.000
    C129    C    0.28149   0.10084   0.44036   1.000
    C130    C    0.78149   0.10114   0.44058   1.000
    C131    C    0.31267   0.17906   0.46413   1.000
    C132    C    0.81264   0.17902   0.46484   1.000
    C133    C    0.37121   0.17616   0.46390   1.000
    C134    C    0.87118   0.17613   0.46466   1.000
    C135    C    0.37096   0.97296   0.58350   1.000
    C136    C    0.87099   0.97312   0.58384   1.000
    C137    C    0.31241   0.97527   0.58515   1.000
    C138    C    0.81244   0.97548   0.58539   1.000
    C139    C    0.28107   0.89880   0.55936   1.000
    C140    C    0.78108   0.89907   0.55950   1.000
    C141    C    0.31217   0.82242   0.53310   1.000
    C142    C    0.81218   0.82271   0.53325   1.000
    C143    C    0.37072   0.82521   0.53335   1.000
    C144    C    0.87073   0.82541   0.53358   1.000
    C145    C    0.37107   0.52464   0.08090   1.000
    C146    C    0.87112   0.52464   0.08116   1.000
    C147    C    0.31253   0.52211   0.08196   1.000
    C148    C    0.81258   0.52207   0.08228   1.000
    C149    C    0.28130   0.60126   0.05955   1.000
    C150    C    0.78132   0.60092   0.05947   1.000
    C151    C    0.31249   0.68038   0.03700   1.000
    C152    C    0.81247   0.67970   0.03630   1.000
    C153    C    0.37104   0.67741   0.03722   1.000
    C154    C    0.87103   0.67676   0.03654   1.000
    C155    C    0.37107   0.47229   0.91588   1.000
    C156    C    0.87111   0.47349   0.91588   1.000
    C157    C    0.31252   0.47460   0.91445   1.000
    C158    C    0.81257   0.47581   0.91435   1.000
    C159    C    0.28122   0.39841   0.94073   1.000
    C160    C    0.78124   0.39933   0.94021   1.000
    C161    C    0.31236   0.32226   0.96729   1.000
    C162    C    0.81234   0.32285   0.96641   1.000
    C163    C    0.37091   0.32498   0.96678   1.000
    C164    C    0.87089   0.32557   0.96604   1.000
    C165    C    0.12864   0.97420   0.58218   1.000
    C166    C    0.62865   0.97480   0.58200   1.000
    C167    C    0.18719   0.97666   0.58348   1.000
    C168    C    0.68720   0.97730   0.58323   1.000
    C169    C    0.21848   0.89879   0.55943   1.000
    C170    C    0.71848   0.89908   0.55964   1.000
    C171    C    0.18733   0.82094   0.53513   1.000
    C172    C    0.68731   0.82089   0.53582   1.000
    C173    C    0.12879   0.82383   0.53531   1.000
    C174    C    0.62876   0.82379   0.53604   1.000
    C175    C    0.12897   0.02684   0.41613   1.000
    C176    C    0.62901   0.02699   0.41638   1.000
    C177    C    0.18753   0.02447   0.41459   1.000
    C178    C    0.68756   0.02468   0.41483   1.000
    C179    C    0.21889   0.10087   0.44044   1.000
    C180    C    0.71890   0.10114   0.44063   1.000
    C181    C    0.18779   0.17721   0.46676   1.000
    C182    C    0.68780   0.17749   0.46693   1.000
    C183    C    0.12924   0.17452   0.46640   1.000
    C184    C    0.62925   0.17471   0.46660   1.000
    C185    C    0.00000   0.33989   0.06639   1.000
    C186    C    0.50017   0.33991   0.06639   1.000
    C187    C    0.00000   0.30255   0.13210   1.000
    C188    C    0.50019   0.30259   0.13211   1.000
    C189    C    0.00000   0.20220   0.14280   1.000
    C190    C    0.50119   0.20226   0.14283   1.000
    C191    C    0.00011   0.16613   0.20353   1.000
    C192    C    0.50113   0.16623   0.20356   1.000
    C193    C    0.00000   0.22964   0.25470   1.000
    C194    C    0.50008   0.22973   0.25473   1.000
    C195    C    0.99994   0.32969   0.24395   1.000
    C196    C    0.49910   0.32976   0.24395   1.000
    C197    C    0.99993   0.36622   0.18322   1.000
    C198    C    0.49916   0.36627   0.18321   1.000
    C199    C    0.00000   0.19113   0.32041   1.000
    C200    C    0.50003   0.69735   0.86780   1.000
    C201    C    0.99986   0.79777   0.85717   1.000
    C202    C    0.50000   0.79770   0.85714   1.000
    C203    C    0.99987   0.83382   0.79644   1.000
    C204    C    0.49994   0.83373   0.79641   1.000
    C205    C    0.99996   0.77031   0.74527   1.000
    C206    C    0.50006   0.77020   0.74524   1.000
    C207    C    0.00003   0.67026   0.75602   1.000
    C208    C    0.50019   0.67016   0.75602   1.000
    C209    C    0.00001   0.63374   0.81676   1.000
    C210    C    0.50008   0.63366   0.81676   1.000
    C211    C    0.99997   0.80884   0.67956   1.000
    C212    C    0.50004   0.80875   0.67954   1.000
    C213    C    0.99996   0.15935   0.56711   1.000
    C214    C    0.50002   0.15933   0.56709   1.000
    C215    C    0.99991   0.19678   0.63277   1.000
    C216    C    0.50002   0.19674   0.63276   1.000
    C217    C    0.99988   0.29716   0.64326   1.000
    C218    C    0.50001   0.29712   0.64326   1.000
    C219    C    0.99990   0.33337   0.70391   1.000
    C220    C    0.49993   0.33331   0.70391   1.000
    C221    C    0.99995   0.26998   0.75520   1.000
    C222    C    0.50004   0.26991   0.75520   1.000
    C223    C    0.99998   0.16991   0.74460   1.000
    C224    C    0.50015   0.16985   0.74460   1.000
    C225    C    0.99995   0.13322   0.68401   1.000
    C226    C    0.50005   0.13317   0.68400   1.000
    C227    C    0.99996   0.30886   0.82077   1.000
    C228    C    0.50003   0.30881   0.82076   1.000
    C229    C    0.00000   0.84059   0.43287   1.000
    C230    C    0.49996   0.84059   0.43288   1.000
    C231    C    0.00006   0.80315   0.36720   1.000
    C232    C    0.49997   0.80318   0.36721   1.000
    C233    C    0.00011   0.70277   0.35671   1.000
    C234    C    0.50011   0.70280   0.35670   1.000
    C235    C    0.00000   0.66657   0.29606   1.000
    C236    C    0.50020   0.66661   0.29605   1.000
    C237    C    0.00006   0.72996   0.24477   1.000
    C238    C    0.49995   0.73001   0.24476   1.000
    C239    C    1.00000   0.83003   0.25530   1.000
    C240    C    0.49972   0.83008   0.25531   1.000
    C241    C    0.00000   0.86671   0.31590   1.000
    C242    C    0.49981   0.86675   0.31598   1.000
    C243    C    0.00003   0.69112   0.17919   1.000
    C244    C    0.49996   0.69116   0.17919   1.000
    N245    N    0.09977   0.39941   0.94180   1.000
    N246    N    0.59977   0.40037   0.94140   1.000
    N247    N    0.09986   0.60039   0.05819   1.000
    N248    N    0.59988   0.59998   0.05817   1.000
    N249    N    0.40039   0.10033   0.44141   1.000
    N250    N    0.90037   0.10064   0.44171   1.000
    N251    N    0.39995   0.89940   0.55794   1.000
    N252    N    0.89998   0.89954   0.55822   1.000
    N253    N    0.59958   0.89959   0.55857   1.000
    N254    N    0.09999   0.10040   0.44177   1.000
    N255    N    0.60002   0.10053   0.44200   1.000
    O256    O    0.99997   0.27892   0.02167   1.000
    O257    O    0.50118   0.27894   0.02168   1.000
    O258    O    0.99997   0.43126   0.05594   1.000
    O259    O    0.49886   0.43124   0.05593   1.000
    O260    O    0.00000   0.09893   0.32789   1.000
    O261    O    0.50127   0.09903   0.32790   1.000
    O262    O    0.99999   0.24993   0.36591   1.000
    O263    O    0.49873   0.24996   0.36593   1.000
    O264    O    0.99998   0.72108   0.97829   1.000
    O265    O    0.50111   0.72104   0.97828   1.000
    O266    O    0.00001   0.56873   0.94400   1.000
    O267    O    0.49889   0.56871   0.94406   1.000
    O268    O    0.99992   0.90104   0.67210   1.000
    O269    O    0.49876   0.90092   0.67209   1.000
    O270    O    0.00001   0.75004   0.63406   1.000
    O271    O    0.50123   0.75000   0.63403   1.000
    O272    O    0.00003   0.22051   0.52239   1.000
    O273    O    0.50111   0.22048   0.52238   1.000
    O274    O    1.00000   0.06803   0.55680   1.000
    O275    O    0.49889   0.06803   0.55677   1.000
    O276    O    0.99994   0.40116   0.82779   1.000
    O277    O    0.49880   0.40109   0.82776   1.000
    O278    O    0.00003   0.25041   0.86652   1.000
    O279    O    0.50123   0.25040   0.86650   1.000
    O280    O    0.99994   0.77944   0.47759   1.000
    O281    O    0.49888   0.77946   0.47759   1.000
    O282    O    0.99997   0.93191   0.44318   1.000
    O283    O    0.50109   0.93189   0.44320   1.000
    O284    O    0.00000   0.59882   0.17213   1.000
    O285    O    0.50126   0.59889   0.17214   1.000
    O286    O    0.99994   0.74960   0.13346   1.000
    O287    O    0.49871   0.74961   0.13346   1.000
loop_
    _geom_bond_atom_site_label_1
    _geom_bond_atom_site_label_2
    _geom_bond_distance
    _geom_bond_site_symmetry_2
    _ccdc_geom_bond_type
    H13    C117      1.08799      .   S
    H12    C116      1.08796      .   S
    H15    C119      1.09204      .   S
    H14    C118      1.09145      .   S
    H37    C152      1.08728      .   S
    H39    C154      1.09131      .   S
    H36    C151      1.08794      .   S
    H38    C153      1.09129      .   S
    O256   C185      1.27563  1_655   S
    O257   C186      1.27559      .   S
    C117   C119      1.38940      .   S
    C117   C115      1.40210      .   S
    C116   C118      1.38949      .   S
    C116   C114      1.40567      .   S
    C119   N248      1.34568      .   S
    C118   N247      1.34563      .   S
    C152   C154      1.38960      .   S
    C152   C150      1.40626      .   S
    C154   N125      1.34563      .   S
    C151   C153      1.38961      .   S
    C151   C149      1.40562      .   S
    C153   N124      1.34561      .   S
    O259   C186      1.28270      .   S
    O258   C185      1.28268  1_655   S
    N248   C111      1.34482      .   S
    N247   C110      1.34489      .   S
    N125   C146      1.34480      .   S
    N124   C145      1.34478      .   S
    C115   C150      1.48444      .   S
    C115   C113      1.40909      .   S
    C114   C149      1.48436      .   S
    C114   C112      1.40562      .   S
    C150   C148      1.40559      .   S
    C149   C147      1.40553      .   S
    C186   C188      1.49715      .   S
    C185   C187      1.49710      .   S
    C145   C147      1.38933      .   S
    C145   H32       1.09041      .   S
    C146   C148      1.38939      .   S
    C146   H33       1.09043      .   S
    C147   H34       1.08771      .   S
    C148   H35       1.08768      .   S
    C110   C112      1.38959      .   S
    C110   H8        1.09058      .   S
    C111   C113      1.38962      .   S
    C111   H9        1.09059      .   S
    C112   H10       1.08777      .   S
    C113   H11       1.08779      .   S
    H64    C189      1.08958      .   S
    H65    C190      1.08963      .   S
    C187   C189      1.40608      .   S
    C187   C197      1.40437  1_455   S
    C188   C190      1.40607      .   S
    C188   C198      1.40430      .   S
    O286   C243      1.26868  1_655   S
    O287   C244      1.26868      .   S
    C189   C191      1.39117      .   S
    C190   C192      1.39103      .   S
    O284   C243      1.28518      .   S
    O285   C244      1.28515      .   S
    H71    C198      1.08898      .   S
    H70    C197      1.08896      .   S
    C244   C238      1.50240      .   S
    C243   C237      1.50254      .   S
    C198   C196      1.39358      .   S
    C197   C195      1.39350      .   S
    C191   H66       1.08933      .   S
    C191   C193      1.40384      .   S
    C192   H67       1.08933      .   S
    C192   C194      1.40405      .   S
    H96    C239      1.08960      .   S
    H97    C240      1.08973      .   S
    C196   C194      1.40206      .   S
    C196   H69       1.08842      .   S
    C195   C193      1.40202  1_655   S
    C195   H68       1.08967      .   S
    C238   C240      1.40199      .   S
    C238   C236      1.40382      .   S
    C237   C239      1.40195  1_455   S
    C237   C235      1.40372      .   S
    C193   C199      1.50278      .   S
    C194   C92       1.50205      .   S
    C239   C241      1.39243  1_655   S
    C240   C242      1.39375      .   S
    H91    C236      1.08930      .   S
    H90    C235      1.08931      .   S
    C236   C234      1.39091      .   S
    C235   C233      1.39101      .   S
    C241   H98       1.08926  1_455   S
    C241   C231      1.40538      .   S
    C242   H99       1.08906      .   S
    C242   C232      1.40434      .   S
    C92    O261      1.28473      .   S
    C92    O263      1.26917      .   S
    C199   O260      1.28464      .   S
    C199   O262      1.26874  1_455   S
    C234   C232      1.40606      .   S
    C234   H89       1.08945      .   S
    C233   C231      1.40604      .   S
    C233   H88       1.08952      .   S
    C231   C229      1.49754      .   S
    C232   C230      1.49742      .   S
    H58    C177      1.08784  1_565   S
    H59    C178      1.08781  1_565   S
    H56    C175      1.09061  1_565   S
    H57    C176      1.09048  1_565   S
    H19    C123      1.08770  1_565   S
    H18    C122      1.08772  1_565   S
    H17    C121      1.09047  1_565   S
    H16    C120      1.09049  1_565   S
    C177   C175      1.38979      .   S
    C177   C179      1.40571      .   S
    C178   C176      1.38966      .   S
    C178   C180      1.40564      .   S
    C175   N254      1.34503      .   S
    C176   N255      1.34459      .   S
    C123   C121      1.38959      .   S
    C123   C130      1.40569      .   S
    C122   C120      1.38964      .   S
    C122   C129      1.40570      .   S
    C121   N250      1.34493      .   S
    C120   N249      1.34490      .   S
    C229   O282      1.28183  1_455   S
    C229   O280      1.27626  1_455   S
    C230   O283      1.28188      .   S
    C230   O281      1.27618      .   S
    C129   C179      1.48486      .   S
    C129   C131      1.40569      .   S
    C179   C181      1.40576      .   S
    C130   C180      1.48467      .   S
    C130   C132      1.40566      .   S
    C180   C182      1.40578      .   S
    N249   C133      1.34554      .   S
    N250   C134      1.34559      .   S
    N254   C183      1.34540      .   S
    N255   C184      1.34553      .   S
    C133   C131      1.38942      .   S
    C133   H22       1.09144      .   S
    C131   H20       1.08787      .   S
    C134   C132      1.38939      .   S
    C134   H23       1.09136      .   S
    C132   H21       1.08782      .   S
    C183   C181      1.38942      .   S
    C183   H62       1.09164      .   S
    C184   C182      1.38933      .   S
    C184   H63       1.09206      .   S
    C181   H60       1.08788      .   S
    C182   H61       1.08782      .   S
    H28    C141      1.08781      .   S
    H29    C142      1.08806      .   S
    H30    C143      1.09149      .   S
    H31    C144      1.09149      .   S
    H52    C171      1.08783      .   S
    H54    C173      1.09135      .   S
    H53    C172      1.08781      .   S
    H55    C174      1.09147      .   S
    O273   C214      1.27628      .   S
    O272   C213      1.27634  1_455   S
    C141   C143      1.38932      .   S
    C141   C139      1.40577      .   S
    C142   C144      1.38944      .   S
    C142   C140      1.40545      .   S
    C143   N251      1.34561      .   S
    C144   N252      1.34563      .   S
    C171   C173      1.38939      .   S
    C171   C169      1.40568      .   S
    C173   N128      1.34558      .   S
    C172   C174      1.38942      .   S
    C172   C170      1.40576      .   S
    C174   N253      1.34562      .   S
    O275   C214      1.28187      .   S
    O274   C213      1.28184      .   S
    N251   C135      1.34433      .   S
    N252   C136      1.34501      .   S
    N128   C165      1.34488      .   S
    N253   C166      1.34487      .   S
    C139   C169      1.48467      .   S
    C139   C137      1.40570      .   S
    C169   C167      1.40566      .   S
    C140   C170      1.48483      .   S
    C140   C138      1.40609      .   S
    C170   C168      1.40567      .   S
    C214   C216      1.49738      .   S
    C213   C215      1.49729      .   S
    C166   C168      1.38965      .   S
    C166   H49       1.09053  1_565   S
    C165   C167      1.38960      .   S
    C165   H48       1.09052  1_565   S
    C168   H51       1.08773  1_565   S
    C167   H50       1.08765  1_565   S
    C135   C137      1.38972      .   S
    C135   H24       1.09124  1_565   S
    C136   C138      1.38980      .   S
    C136   H25       1.08996  1_565   S
    C137   H26       1.08782  1_565   S
    C138   H27       1.08782  1_565   S
    H80    C217      1.08948      .   S
    H81    C218      1.08955      .   S
    C216   C218      1.40603      .   S
    C216   C226      1.40447      .   S
    C215   C217      1.40604      .   S
    C215   C225      1.40436      .   S
    O271   C212      1.26869      .   S
    O270   C211      1.26865  1_455   S
    C218   C220      1.39094      .   S
    C217   C219      1.39102      .   S
    O269   C212      1.28460      .   S
    O268   C211      1.28457      .   S
    H87    C226      1.08906      .   S
    H86    C225      1.08904  1_455   S
    C212   C206      1.50271      .   S
    C211   C205      1.50284      .   S
    C226   C224      1.39238      .   S
    C225   C223      1.39225      .   S
    C219   H82       1.08931      .   S
    C219   C221      1.40369      .   S
    C220   H83       1.08929      .   S
    C220   C222      1.40377      .   S
    H76    C207      1.08956      .   S
    H77    C208      1.08979      .   S
    C224   C222      1.40218      .   S
    C224   H85       1.09054      .   S
    C223   C221      1.40220      .   S
    C223   H84       1.09094  1_655   S
    C206   C208      1.40206      .   S
    C206   C204      1.40400      .   S
    C205   C207      1.40200  1_655   S
    C205   C203      1.40388      .   S
    C221   C227      1.50252      .   S
    C222   C228      1.50241      .   S
    C208   C210      1.39354      .   S
    C207   C209      1.39367      .   S
    H75    C204      1.08932      .   S
    H74    C203      1.08949      .   S
    C204   C202      1.39099      .   S
    C203   C201      1.39112      .   S
    C210   H79       1.08895      .   S
    C210   C200      1.40325      .   S
    C209   H78       1.08895      .   S
    C209   C95       1.40428  1_455   S
    C228   O277      1.28510      .   S
    C228   O279      1.26846      .   S
    C227   O276      1.28509      .   S
    C227   O278      1.26871  1_655   S
    C202   C200      1.40586      .   S
    C202   H73       1.08961      .   S
    C201   C95       1.40607      .   S
    C201   H72       1.08960      .   S
    C200   C94       1.49850      .   S
    C95    C93       1.49720      .   S
    H42    C157      1.08769      .   S
    H43    C158      1.08775      .   S
    H40    C155      1.09053      .   S
    H41    C156      1.09049      .   S
    H3     C103      1.08764      .   S
    H2     C102      1.08760      .   S
    H1     C101      1.09047      .   S
    H0     C100      1.09048      .   S
    C158   C156      1.38959      .   S
    C158   C160      1.40560      .   S
    C157   C155      1.38951      .   S
    C157   C159      1.40563      .   S
    C155   N126      1.34482      .   S
    C156   N127      1.34488      .   S
    C103   C101      1.38941      .   S
    C103   C105      1.40563      .   S
    C102   C100      1.38937      .   S
    C102   C104      1.40559      .   S
    C101   N246      1.34474      .   S
    C100   N245      1.34432      .   S
    C94    O267      1.28272      .   S
    C94    O265      1.27544      .   S
    C93    O266      1.28252  1_655   S
    C93    O264      1.27542      .   S
    C105   C160      1.48464      .   S
    C105   C107      1.40563      .   S
    C160   C162      1.40571      .   S
    C159   C104      1.48455      .   S
    C159   C161      1.40577      .   S
    C104   C106      1.40564      .   S
    N246   C109      1.34573      .   S
    N127   C164      1.34559      .   S
    N126   C163      1.34553      .   S
    N245   C108      1.34561      .   S
    C109   C107      1.38949      .   S
    C109   H7        1.09135      .   S
    C107   H5        1.08792      .   S
    C108   C106      1.38961      .   S
    C108   H6        1.09177      .   S
    C106   H4        1.08787      .   S
    C164   C162      1.38948      .   S
    C164   H47       1.09154      .   S
    C162   H45       1.08762      .   S
    C163   C161      1.38949      .   S
    C163   H46       1.09147      .   S
    C161   H44       1.08790      .   S
