# CIF file generated by openbabel 2.4.90, see http://openbabel.sf.net
data_I
_chemical_name_common ''
_cell_length_a 23.722
_cell_length_b 13.826
_cell_length_c 21.392
_cell_angle_alpha 89.955
_cell_angle_beta 89.997
_cell_angle_gamma 90.003
_space_group_name_H-M_alt 'P 1'
_space_group_name_Hall 'P 1'
loop_
    _symmetry_equiv_pos_as_xyz
    x,y,z
loop_
    _atom_site_label
    _atom_site_type_symbol
    _atom_site_fract_x
    _atom_site_fract_y
    _atom_site_fract_z
    _atom_site_occupancy
    Cd0     Cd   0.49994   0.39119   0.93767   1.000
    Cd1     Cd   0.00000   0.60882   0.06227   1.000
    Cd2     Cd   0.49999   0.60878   0.06228   1.000
    Cd3     Cd   0.00016   0.10962   0.43781   1.000
    Cd4     Cd   0.50021   0.10955   0.43780   1.000
    Cd5     Cd   0.99982   0.89034   0.56217   1.000
    Cd6     Cd   0.49975   0.89038   0.56217   1.000
    Cd7     Cd   0.99997   0.39118   0.93769   1.000
