# CIF file generated by openbabel 2.4.90, see http://openbabel.sf.net
data_I
_chemical_name_common ''
_cell_length_a 23.722
_cell_length_b 13.826
_cell_length_c 21.392
_cell_angle_alpha 89.955
_cell_angle_beta 89.997
_cell_angle_gamma 90.003
_space_group_name_H-M_alt 'P 1'
_space_group_name_Hall 'P 1'
loop_
    _symmetry_equiv_pos_as_xyz
    x,y,z
loop_
    _atom_site_label
    _atom_site_type_symbol
    _atom_site_fract_x
    _atom_site_fract_y
    _atom_site_fract_z
    _atom_site_occupancy
    Zr0     Zr   0.99997   0.39118   0.93769   1.000
    Zr1     Zr   0.49994   0.39119   0.93767   1.000
    Zr2     Zr   0.00000   0.60882   0.06227   1.000
    Zr3     Zr   0.49999   0.60878   0.06228   1.000
    Zr4     Zr   0.00016   0.10962   0.43781   1.000
    Zr5     Zr   0.50021   0.10955   0.43780   1.000
    Zr6     Zr   0.99982   0.89034   0.56217   1.000
    Zr7     Zr   0.49975   0.89038   0.56217   1.000
    N8      N    0.50002   0.23384   0.69389   1.000
    O9      O    0.49967   0.10653   0.62668   1.000
    O10     O    0.50034   0.19943   0.58699   1.000
    N11     N    0.74994   0.39962   0.94066   1.000
    O12     O    0.84999   0.39756   0.94012   1.000
    O13     O    0.64990   0.39770   0.94010   1.000
    N14     N    0.75003   0.60065   0.05897   1.000
    O15     O    0.85006   0.60263   0.05964   1.000
    O16     O    0.64998   0.60252   0.05960   1.000
    N17     N    0.74978   0.89920   0.55913   1.000
    O18     O    0.84984   0.89707   0.55966   1.000
    O19     O    0.64973   0.89709   0.55975   1.000
    N20     N    0.25002   0.60101   0.05909   1.000
    O21     O    0.35005   0.60288   0.05977   1.000
    O22     O    0.14997   0.60281   0.05966   1.000
    N23     N    0.24978   0.89895   0.55889   1.000
    O24     O    0.34981   0.89692   0.55947   1.000
    O25     O    0.14974   0.89689   0.55956   1.000
    N26     N    0.25019   0.10073   0.44085   1.000
    O27     O    0.15013   0.10287   0.44032   1.000
    O28     O    0.35024   0.10284   0.44023   1.000
    N29     N    0.24993   0.39870   0.94113   1.000
    O30     O    0.34998   0.39688   0.94042   1.000
    O31     O    0.14990   0.39700   0.94044   1.000
    N32     N    0.99994   0.73428   0.80663   1.000
    O33     O    0.99997   0.60712   0.87374   1.000
    O34     O    0.99997   0.69962   0.91346   1.000
    N35     N    0.99995   0.23389   0.69390   1.000
    O36     O    0.00002   0.19948   0.58700   1.000
    O37     O    0.99993   0.10654   0.62669   1.000
    N38     N    0.49997   0.76609   0.30607   1.000
    O39     O    0.50031   0.89340   0.37328   1.000
    O40     O    0.49964   0.80051   0.41297   1.000
    N41     N    0.50011   0.26574   0.19334   1.000
    O42     O    0.50033   0.30040   0.08651   1.000
    O43     O    0.49977   0.39287   0.12622   1.000
    N44     N    0.00001   0.76606   0.30606   1.000
    O45     O    0.00004   0.89341   0.37328   1.000
    O46     O    0.99995   0.80047   0.41297   1.000
    N47     N    0.99999   0.26568   0.19334   1.000
    O48     O    0.99999   0.39286   0.12622   1.000
    O49     O    0.99998   0.30036   0.08651   1.000
    N50     N    0.75019   0.10099   0.44109   1.000
    O51     O    0.65015   0.10301   0.44050   1.000
    O52     O    0.85023   0.10306   0.44043   1.000
    N53     N    0.50003   0.73421   0.80662   1.000
    O54     O    0.50029   0.69956   0.91345   1.000
    O55     O    0.49973   0.60708   0.87374   1.000
    O56     O    0.50000   0.29616   0.79314   1.000
    O57     O    0.49995   0.79607   0.70712   1.000
    O58     O    0.99997   0.29619   0.79316   1.000
    O59     O    0.99992   0.79611   0.70713   1.000
    O60     O    1.00000   0.70379   0.20680   1.000
    O61     O    0.50011   0.20388   0.29285   1.000
    O62     O    0.49998   0.70380   0.20680   1.000
    O63     O    0.00003   0.20385   0.29285   1.000
loop_
    _geom_bond_atom_site_label_1
    _geom_bond_atom_site_label_2
    _geom_bond_distance
    _geom_bond_site_symmetry_2
    _ccdc_geom_bond_type
    N8     O9        2.27370      .   S
    Zr7    O9        3.29260  1_565   S
    N8     O10       2.33614      .   S
    Zr5    O10       3.42577      .   S
    N11    O12       2.37360      .   S
    Zr0    O12       3.55929      .   S
    N11    O13       2.37339      .   S
    Zr1    O13       3.55881      .   S
    N14    O15       2.37311      .   S
    Zr2    O15       3.55835  1_455   S
    N14    O16       2.37352      .   S
    Zr3    O16       3.55957      .   S
    N17    O18       2.37380      .   S
    Zr6    O18       3.55937      .   S
    N17    O19       2.37378      .   S
    Zr7    O19       3.55919      .   S
    N20    O21       2.37311      .   S
    Zr3    O21       3.55839      .   S
    N20    O22       2.37334      .   S
    Zr2    O22       3.55909      .   S
    N23    O24       2.37328      .   S
    Zr7    O24       3.55848      .   S
    N23    O25       2.37320      .   S
    Zr6    O25       3.55813  1_655   S
    N26    O27       2.37376      .   S
    Zr4    O27       3.55926      .   S
    N26    O28       2.37375      .   S
    Zr5    O28       3.55910      .   S
    N29    O30       2.37340      .   S
    Zr1    O30       3.55888      .   S
    N29    O31       2.37307      .   S
    Zr0    O31       3.55803  1_655   S
    N32    O33       2.26893      .   S
    Zr0    O33       3.28311      .   S
    N32    O34       2.33455      .   S
    Zr2    O34       3.42111  1_454   S
    N35    O36       2.33613  1_655   S
    Zr4    O36       3.42567      .   S
    N35    O37       2.27404      .   S
    Zr6    O37       3.29343  1_565   S
    N38    O39       2.27376      .   S
    Zr5    O39       3.29268  1_545   S
    N38    O40       2.33628      .   S
    Zr7    O40       3.42589      .   S
    N41    O42       2.33473      .   S
    Zr1    O42       3.42156  1_556   S
    N41    O43       2.26878      .   S
    Zr3    O43       3.28257      .   S
    N44    O45       2.27417      .   S
    Zr4    O45       3.29362  1_545   S
    N44    O46       2.33633  1_455   S
    Zr6    O46       3.42589      .   S
    N47    O48       2.26920      .   S
    Zr2    O48       3.28335  1_455   S
    N47    O49       2.33468      .   S
    Zr0    O49       3.42128  1_556   S
    N50    O51       2.37331      .   S
    Zr5    O51       3.55858      .   S
    N50    O52       2.37325      .   S
    Zr4    O52       3.55825  1_455   S
    N53    O54       2.33465      .   S
    Zr3    O54       3.42136  1_554   S
    N53    O55       2.26877      .   S
    Zr1    O55       3.28228      .   S
    Zr1    O56       3.36028      .   S
    N8     O56       2.29204      .   S
    Zr7    O57       3.36282      .   S
    N53    O57       2.29330      .   S
    Zr0    O58       3.36011      .   S
    N35    O58       2.29206      .   S
    Zr6    O59       3.36256      .   S
    N32    O59       2.29318      .   S
    Zr2    O60       3.35994  1_455   S
    N44    O60       2.29201  1_455   S
    Zr5    O61       3.36296      .   S
    N41    O61       2.29343      .   S
    Zr3    O62       3.36020      .   S
    N38    O62       2.29209      .   S
    Zr4    O63       3.36270      .   S
    N47    O63       2.29330  1_655   S
