# CIF file generated by openbabel 2.4.90, see http://openbabel.sf.net
data_I
_chemical_name_common ''
_cell_length_a 18.464
_cell_length_b 18.456
_cell_length_c 18.454
_cell_angle_alpha 59.998
_cell_angle_beta 60.026
_cell_angle_gamma 60.029
_space_group_name_H-M_alt 'P 1'
_space_group_name_Hall 'P 1'
loop_
    _symmetry_equiv_pos_as_xyz
    x,y,z
loop_
    _atom_site_label
    _atom_site_type_symbol
    _atom_site_fract_x
    _atom_site_fract_y
    _atom_site_fract_z
    _atom_site_occupancy
    N0      N    0.09497   0.59310   0.09497   1.000
    N1      N    0.09496   0.09498   0.59310   1.000
    N2      N    0.09455   0.59502   0.59502   1.000
    N3      N    0.59498   0.59499   0.09474   1.000
    N4      N    0.90498   0.90502   0.40691   1.000
    N5      N    0.90539   0.40499   0.40500   1.000
    N6      N    0.90497   0.40690   0.90504   1.000
    N7      N    0.40496   0.90528   0.40503   1.000
    N8      N    0.40496   0.40502   0.90528   1.000
    N9      N    0.40688   0.90500   0.90500   1.000
    N10     N    0.59306   0.09501   0.09499   1.000
    N11     N    0.59498   0.09473   0.59499   1.000
    Zr12    Zr   0.34505   0.34511   0.34509   1.000
    Zr13    Zr   0.84491   0.84500   0.84501   1.000
    Zr14    Zr   0.65489   0.65490   0.65491   1.000
    Zr15    Zr   0.15503   0.15500   0.15501   1.000
    O16     O    0.57239   0.73760   0.57238   1.000
    O17     O    0.73746   0.73750   0.57303   1.000
    O18     O    0.57300   0.73748   0.73750   1.000
    O19     O    0.73763   0.57238   0.57238   1.000
    O20     O    0.57238   0.57237   0.73761   1.000
    O21     O    0.73746   0.57302   0.73751   1.000
    O22     O    0.23756   0.07253   0.23760   1.000
    O23     O    0.76239   0.76241   0.92749   1.000
    O24     O    0.42756   0.42763   0.26240   1.000
    O25     O    0.07246   0.07244   0.23816   1.000
    O26     O    0.23817   0.07243   0.07242   1.000
    O27     O    0.07260   0.23757   0.23758   1.000
    O28     O    0.76239   0.92747   0.76242   1.000
    O29     O    0.92734   0.76244   0.76244   1.000
    O30     O    0.92748   0.92757   0.76185   1.000
    O31     O    0.76178   0.92757   0.92757   1.000
    O32     O    0.92748   0.76185   0.92757   1.000
    O33     O    0.42755   0.26241   0.42763   1.000
    O34     O    0.23756   0.23759   0.07253   1.000
    O35     O    0.07246   0.23816   0.07245   1.000
    O36     O    0.26231   0.42763   0.42762   1.000
    O37     O    0.26248   0.26251   0.42698   1.000
    O38     O    0.42694   0.26252   0.26250   1.000
    O39     O    0.26249   0.42699   0.26249   1.000
loop_
    _geom_bond_atom_site_label_1
    _geom_bond_atom_site_label_2
    _geom_bond_distance
    _geom_bond_site_symmetry_2
    _ccdc_geom_bond_type
    Zr14   O16       2.15414      .   S
    N7     O16       4.36978      .   S
    Zr14   O17       2.15592      .   S
    N4     O17       4.37330      .   S
    Zr14   O18       2.15641      .   S
    N9     O18       4.37376      .   S
    Zr14   O19       2.15482      .   S
    N5     O19       4.37056      .   S
    Zr14   O20       2.15415      .   S
    N8     O20       4.36979      .   S
    Zr14   O21       2.15587      .   S
    N6     O21       4.37319      .   S
    N7     O22       4.37042  1_565   S
    Zr15   O22       2.15520      .   S
    N3     O23       4.37044  1_554   S
    Zr13   O23       2.15519      .   S
    N3     O24       4.36979      .   S
    Zr12   O24       2.15415      .   S
    N4     O25       4.37136  1_665   S
    Zr15   O25       2.15548      .   S
    N9     O26       4.37171  1_566   S
    Zr15   O26       2.15620      .   S
    N5     O27       4.37136  1_655   S
    Zr15   O27       2.15596      .   S
    Zr13   O28       2.15519      .   S
    N11    O28       4.37041  1_545   S
    Zr13   O29       2.15598      .   S
    N2     O29       4.37140  1_455   S
    Zr13   O30       2.15547      .   S
    N1     O30       4.37136  1_445   S
    Zr13   O31       2.15584      .   S
    N10    O31       4.37172  1_544   S
    Zr13   O32       2.15538      .   S
    N0     O32       4.37120  1_454   S
    N11    O33       4.36989      .   S
    Zr12   O33       2.15427      .   S
    Zr15   O34       2.15519      .   S
    N8     O34       4.37043  1_556   S
    Zr15   O35       2.15546      .   S
    N6     O35       4.37132  1_656   S
    N2     O36       4.37074      .   S
    Zr12   O36       2.15481      .   S
    N1     O37       4.37330      .   S
    Zr12   O37       2.15591      .   S
    Zr12   O38       2.15638      .   S
    N10    O38       4.37390      .   S
    Zr12   O39       2.15588      .   S
    N0     O39       4.37316      .   S
