# CIF file generated by openbabel 2.4.90, see http://openbabel.sf.net
data_I
_chemical_name_common ''
_cell_length_a 18.464
_cell_length_b 18.456
_cell_length_c 18.454
_cell_angle_alpha 59.998
_cell_angle_beta 60.026
_cell_angle_gamma 60.029
_space_group_name_H-M_alt 'P 1'
_space_group_name_Hall 'P 1'
loop_
    _symmetry_equiv_pos_as_xyz
    x,y,z
loop_
    _atom_site_label
    _atom_site_type_symbol
    _atom_site_fract_x
    _atom_site_fract_y
    _atom_site_fract_z
    _atom_site_occupancy
    N0      N    0.09497   0.59310   0.09497   1.000
    N1      N    0.09496   0.09498   0.59310   1.000
    N2      N    0.09455   0.59502   0.59502   1.000
    N3      N    0.59498   0.59499   0.09474   1.000
    N4      N    0.90498   0.90502   0.40691   1.000
    N5      N    0.90539   0.40499   0.40500   1.000
    N6      N    0.90497   0.40690   0.90504   1.000
    N7      N    0.40496   0.90528   0.40503   1.000
    N8      N    0.40496   0.40502   0.90528   1.000
    N9      N    0.40688   0.90500   0.90500   1.000
    N10     N    0.59306   0.09501   0.09499   1.000
    N11     N    0.59498   0.09473   0.59499   1.000
    Zr12    Zr   0.34505   0.34511   0.34509   1.000
    O13     O    0.42756   0.24381   0.42760   1.000
    O14     O    0.42693   0.24394   0.28108   1.000
    O15     O    0.28104   0.24393   0.42698   1.000
    O16     O    0.42756   0.42761   0.24380   1.000
    O17     O    0.28105   0.42698   0.24391   1.000
    O18     O    0.42694   0.28110   0.24392   1.000
    O19     O    0.24374   0.42761   0.42759   1.000
    O20     O    0.24392   0.28108   0.42697   1.000
    O21     O    0.24393   0.42699   0.28106   1.000
    O22     O    0.42755   0.28101   0.42766   1.000
    O23     O    0.42755   0.42766   0.28100   1.000
    O24     O    0.28088   0.42765   0.42764   1.000
    Zr25    Zr   0.84491   0.84500   0.84501   1.000
    O26     O    0.76178   0.94618   0.90896   1.000
    O27     O    0.90890   0.94617   0.76187   1.000
    O28     O    0.76240   0.94608   0.76242   1.000
    O29     O    0.76237   0.76242   0.90888   1.000
    O30     O    0.90875   0.76243   0.76243   1.000
    O31     O    0.76237   0.90887   0.76242   1.000
    O32     O    0.76240   0.76241   0.94610   1.000
    O33     O    0.90890   0.76187   0.94618   1.000
    O34     O    0.76177   0.90897   0.94618   1.000
    O35     O    0.94593   0.76245   0.76245   1.000
    O36     O    0.94607   0.90896   0.76184   1.000
    O37     O    0.94607   0.76183   0.90896   1.000
    Zr38    Zr   0.65489   0.65490   0.65491   1.000
    O39     O    0.57238   0.75619   0.57241   1.000
    O40     O    0.71890   0.75607   0.57303   1.000
    O41     O    0.57301   0.75606   0.71892   1.000
    O42     O    0.57300   0.71891   0.75608   1.000
    O43     O    0.57238   0.57240   0.75621   1.000
    O44     O    0.71889   0.57302   0.75609   1.000
    O45     O    0.75602   0.71893   0.57303   1.000
    O46     O    0.75620   0.57240   0.57240   1.000
    O47     O    0.75602   0.57301   0.71894   1.000
    O48     O    0.71906   0.57235   0.57236   1.000
    O49     O    0.57239   0.57235   0.71900   1.000
    O50     O    0.57239   0.71900   0.57235   1.000
    Zr51    Zr   0.15503   0.15500   0.15501   1.000
    O52     O    0.09119   0.23758   0.23759   1.000
    O53     O    0.23757   0.23759   0.09114   1.000
    O54     O    0.23757   0.09114   0.23760   1.000
    O55     O    0.09104   0.05384   0.23815   1.000
    O56     O    0.23816   0.05383   0.09104   1.000
    O57     O    0.23754   0.05392   0.23760   1.000
    O58     O    0.23817   0.09104   0.05379   1.000
    O59     O    0.23754   0.23759   0.05392   1.000
    O60     O    0.09104   0.23814   0.05384   1.000
    O61     O    0.05387   0.09105   0.23818   1.000
    O62     O    0.05401   0.23756   0.23757   1.000
    O63     O    0.05387   0.23817   0.09105   1.000
loop_
    _geom_bond_atom_site_label_1
    _geom_bond_atom_site_label_2
    _geom_bond_distance
    _geom_bond_site_symmetry_2
    _ccdc_geom_bond_type
    Zr12   O13       2.18173      .   S
    N11    O13       4.38321      .   S
    Zr12   O14       2.18347      .   S
    N10    O14       4.38731      .   S
    Zr12   O15       2.18297      .   S
    N1     O15       4.38680      .   S
    Zr12   O16       2.18160      .   S
    N3     O16       4.38313      .   S
    Zr12   O17       2.18288      .   S
    N0     O17       4.38672      .   S
    Zr12   O18       2.18346      .   S
    N10    O18       4.38732      .   S
    Zr12   O19       2.18229      .   S
    N2     O19       4.38399      .   S
    Zr12   O20       2.18305      .   S
    N1     O20       4.38665      .   S
    Zr12   O21       2.18306      .   S
    N0     O21       4.38643      .   S
    Zr12   O22       2.18123      .   S
    N11    O22       4.38352      .   S
    Zr12   O23       2.18113      .   S
    N3     O23       4.38340      .   S
    Zr12   O24       2.18168      .   S
    N2     O24       4.38442      .   S
    Zr25   O26       2.18302      .   S
    N10    O26       4.38519  1_544   S
    Zr25   O27       2.18265      .   S
    N1     O27       4.38486  1_445   S
    Zr25   O28       2.18203      .   S
    N11    O28       4.38425  1_545   S
    Zr25   O29       2.18278      .   S
    N3     O29       4.38354  1_554   S
    Zr25   O30       2.18351      .   S
    N2     O30       4.38462  1_455   S
    Zr25   O31       2.18278      .   S
    N11    O31       4.38354  1_545   S
    Zr25   O32       2.18201      .   S
    N3     O32       4.38430  1_554   S
    Zr25   O33       2.18257      .   S
    N0     O33       4.38470  1_454   S
    Zr25   O34       2.18302      .   S
    N10    O34       4.38519  1_544   S
    Zr25   O35       2.18280      .   S
    N2     O35       4.38512  1_455   S
    Zr25   O36       2.18267      .   S
    N1     O36       4.38479  1_445   S
    Zr25   O37       2.18256      .   S
    N0     O37       4.38465  1_454   S
    Zr38   O39       2.18162      .   S
    N7     O39       4.38309      .   S
    Zr38   O40       2.18297      .   S
    N4     O40       4.38680      .   S
    Zr38   O41       2.18351      .   S
    N9     O41       4.38715      .   S
    Zr38   O42       2.18349      .   S
    N9     O42       4.38720      .   S
    Zr38   O43       2.18162      .   S
    N8     O43       4.38312      .   S
    Zr38   O44       2.18294      .   S
    N6     O44       4.38670      .   S
    Zr38   O45       2.18305      .   S
    N4     O45       4.38664      .   S
    Zr38   O46       2.18231      .   S
    N5     O46       4.38378      .   S
    Zr38   O47       2.18300      .   S
    N6     O47       4.38652      .   S
    Zr38   O48       2.18168      .   S
    N5     O48       4.38426      .   S
    Zr38   O49       2.18110      .   S
    N8     O49       4.38341      .   S
    Zr38   O50       2.18108      .   S
    N7     O50       4.38341      .   S
    Zr51   O52       2.18350      .   S
    N5     O52       4.38457  1_655   S
    Zr51   O53       2.18278      .   S
    N8     O53       4.38353  1_556   S
    Zr51   O54       2.18279      .   S
    N7     O54       4.38354  1_565   S
    Zr51   O55       2.18265      .   S
    N4     O55       4.38487  1_665   S
    Zr51   O56       2.18315      .   S
    N9     O56       4.38539  1_566   S
    Zr51   O57       2.18203      .   S
    N7     O57       4.38426  1_565   S
    Zr51   O58       2.18364      .   S
    N9     O58       4.38498  1_566   S
    Zr51   O59       2.18201      .   S
    N8     O59       4.38429  1_556   S
    Zr51   O60       2.18262      .   S
    N6     O60       4.38486  1_656   S
    Zr51   O61       2.18267      .   S
    N4     O61       4.38479  1_665   S
    Zr51   O62       2.18278      .   S
    N5     O62       4.38509  1_655   S
    Zr51   O63       2.18268      .   S
    N6     O63       4.38473  1_656   S
