# CIF file generated by openbabel 2.4.90, see http://openbabel.sf.net
data_I
_chemical_name_common ''
_cell_length_a 18.464
_cell_length_b 18.456
_cell_length_c 18.454
_cell_angle_alpha 59.998
_cell_angle_beta 60.026
_cell_angle_gamma 60.029
_space_group_name_H-M_alt 'P 1'
_space_group_name_Hall 'P 1'
loop_
    _symmetry_equiv_pos_as_xyz
    x,y,z
loop_
    _atom_site_label
    _atom_site_type_symbol
    _atom_site_fract_x
    _atom_site_fract_y
    _atom_site_fract_z
    _atom_site_occupancy
    C0      C    0.61152   0.78534   0.61152   1.000
    C1      C    0.19851   0.02433   0.19855   1.000
    C2      C    0.61150   0.61151   0.78537   1.000
    C3      C    0.19852   0.19854   0.02431   1.000
    C4      C    0.78520   0.61154   0.61154   1.000
    C5      C    0.02451   0.19854   0.19855   1.000
    C6      C    0.61143   0.61127   0.61126   1.000
    C7      C    0.19855   0.19861   0.19862   1.000
    C8      C    0.21474   0.38847   0.38840   1.000
    C9      C    0.97543   0.80147   0.80146   1.000
    C10     C    0.38844   0.38850   0.21464   1.000
    C11     C    0.80142   0.80147   0.97571   1.000
    C12     C    0.38842   0.21467   0.38850   1.000
    C13     C    0.80143   0.97567   0.80147   1.000
    C14     C    0.38851   0.38874   0.38876   1.000
    C15     C    0.80140   0.80140   0.80140   1.000
    C16     C    0.35954   0.83653   0.06941   1.000
    C17     C    0.45509   0.74068   0.97370   1.000
    C18     C    0.06924   0.35926   0.83652   1.000
    C19     C    0.97341   0.45484   0.74070   1.000
    C20     C    0.83669   0.06940   0.35984   1.000
    C21     C    0.74078   0.97368   0.45537   1.000
    C22     C    0.83669   0.35985   0.06940   1.000
    C23     C    0.74077   0.45539   0.97375   1.000
    C24     C    0.35951   0.06937   0.83652   1.000
    C25     C    0.45506   0.97364   0.74067   1.000
    C26     C    0.06925   0.83654   0.35930   1.000
    C27     C    0.97344   0.74070   0.45487   1.000
    C28     C    0.35674   0.06948   0.35748   1.000
    C29     C    0.45237   0.97422   0.45302   1.000
    C30     C    0.35723   0.83674   0.35679   1.000
    C31     C    0.45346   0.74083   0.45282   1.000
    C32     C    0.35673   0.35743   0.06949   1.000
    C33     C    0.45237   0.45297   0.97426   1.000
    C34     C    0.35722   0.35682   0.83670   1.000
    C35     C    0.45345   0.45286   0.74081   1.000
    C36     C    0.06950   0.35718   0.35725   1.000
    C37     C    0.97415   0.45276   0.45282   1.000
    C38     C    0.83704   0.35693   0.35690   1.000
    C39     C    0.74107   0.45305   0.45300   1.000
    C40     C    0.16325   0.64015   0.93058   1.000
    C41     C    0.25917   0.54461   0.02627   1.000
    C42     C    0.64043   0.93063   0.16350   1.000
    C43     C    0.54489   0.02637   0.25930   1.000
    C44     C    0.93070   0.16347   0.64070   1.000
    C45     C    0.02650   0.25930   0.54515   1.000
    C46     C    0.64040   0.16348   0.93061   1.000
    C47     C    0.54486   0.25933   0.02632   1.000
    C48     C    0.93070   0.64075   0.16350   1.000
    C49     C    0.02653   0.54517   0.25932   1.000
    C50     C    0.16325   0.93061   0.64018   1.000
    C51     C    0.25916   0.02632   0.54465   1.000
    C52     C    0.93044   0.64282   0.64277   1.000
    C53     C    0.02579   0.54724   0.54720   1.000
    C54     C    0.16291   0.64307   0.64312   1.000
    C55     C    0.25887   0.54695   0.54702   1.000
    C56     C    0.64321   0.64258   0.93053   1.000
    C57     C    0.54756   0.54704   0.02576   1.000
    C58     C    0.64272   0.64318   0.16332   1.000
    C59     C    0.54649   0.54715   0.25921   1.000
    C60     C    0.64321   0.93053   0.64254   1.000
    C61     C    0.54757   0.02579   0.54700   1.000
    C62     C    0.64271   0.16326   0.64323   1.000
    C63     C    0.54648   0.25917   0.54720   1.000
    C64     C    0.38082   0.86586   0.99740   1.000
    C65     C    0.43391   0.81260   0.94416   1.000
    C66     C    0.99726   0.38070   0.86580   1.000
    C67     C    0.94398   0.43379   0.81264   1.000
    C68     C    0.86593   0.99739   0.38102   1.000
    C69     C    0.81264   0.94416   0.43409   1.000
    C70     C    0.86593   0.38103   0.99743   1.000
    C71     C    0.81264   0.43410   0.94420   1.000
    C72     C    0.38081   0.99736   0.86586   1.000
    C73     C    0.43389   0.94412   0.81261   1.000
    C74     C    0.99726   0.86587   0.38073   1.000
    C75     C    0.94400   0.81263   0.43381   1.000
    C76     C    0.29393   0.01615   0.29416   1.000
    C77     C    0.35129   0.95876   0.35146   1.000
    C78     C    0.37804   0.99762   0.37849   1.000
    C79     C    0.43136   0.94451   0.43174   1.000
    C80     C    0.37851   0.86599   0.37829   1.000
    C81     C    0.43182   0.81287   0.43150   1.000
    C82     C    0.45863   0.85175   0.45862   1.000
    C83     C    0.51597   0.79445   0.51587   1.000
    C84     C    0.29393   0.29415   0.01613   1.000
    C85     C    0.35129   0.35146   0.95875   1.000
    C86     C    0.37805   0.37846   0.99763   1.000
    C87     C    0.43136   0.43171   0.94453   1.000
    C88     C    0.37850   0.37831   0.86597   1.000
    C89     C    0.43182   0.43152   0.81285   1.000
    C90     C    0.45862   0.45862   0.85176   1.000
    C91     C    0.51596   0.51588   0.79446   1.000
    C92     C    0.01632   0.29406   0.29408   1.000
    C93     C    0.95890   0.35138   0.35139   1.000
    C94     C    0.99766   0.37831   0.37835   1.000
    C95     C    0.94452   0.43158   0.43162   1.000
    C96     C    0.86621   0.37836   0.37834   1.000
    C97     C    0.81305   0.43161   0.43159   1.000
    C98     C    0.85184   0.45861   0.45862   1.000
    C99     C    0.79451   0.51589   0.51590   1.000
    C100    C    0.29547   0.01593   0.01593   1.000
    C101    C    0.35369   0.95861   0.95863   1.000
    C102    C    0.46075   0.85135   0.85138   1.000
    C103    C    0.51730   0.79412   0.79415   1.000
    C104    C    0.01599   0.29546   0.01593   1.000
    C105    C    0.95861   0.35373   0.95864   1.000
    C106    C    0.85128   0.46078   0.85142   1.000
    C107    C    0.79403   0.51732   0.79420   1.000
    C108    C    0.01599   0.01594   0.29548   1.000
    C109    C    0.95861   0.95863   0.35374   1.000
    C110    C    0.85130   0.85139   0.46078   1.000
    C111    C    0.79405   0.79416   0.51730   1.000
    C112    C    0.13401   0.61898   0.00259   1.000
    C113    C    0.18730   0.56590   0.05580   1.000
    C114    C    0.61914   0.00264   0.13416   1.000
    C115    C    0.56605   0.05589   0.18741   1.000
    C116    C    0.00268   0.13413   0.61929   1.000
    C117    C    0.05594   0.18738   0.56621   1.000
    C118    C    0.61912   0.13415   0.00262   1.000
    C119    C    0.56603   0.18741   0.05580   1.000
    C120    C    0.00268   0.61931   0.13414   1.000
    C121    C    0.05596   0.56622   0.18738   1.000
    C122    C    0.13401   0.00261   0.61900   1.000
    C123    C    0.18730   0.05585   0.56593   1.000
    C124    C    0.98362   0.70595   0.70594   1.000
    C125    C    0.04104   0.64862   0.64862   1.000
    C126    C    0.00228   0.62169   0.62167   1.000
    C127    C    0.05542   0.56842   0.56840   1.000
    C128    C    0.13373   0.62165   0.62168   1.000
    C129    C    0.18689   0.56840   0.56840   1.000
    C130    C    0.14811   0.54140   0.54140   1.000
    C131    C    0.20543   0.48412   0.48412   1.000
    C132    C    0.70602   0.70585   0.98389   1.000
    C133    C    0.64865   0.64855   0.04127   1.000
    C134    C    0.62189   0.62155   0.00239   1.000
    C135    C    0.56858   0.56830   0.05549   1.000
    C136    C    0.62144   0.62170   0.13405   1.000
    C137    C    0.56813   0.56849   0.18717   1.000
    C138    C    0.54132   0.54139   0.14826   1.000
    C139    C    0.48398   0.48413   0.20550   1.000
    C140    C    0.70601   0.98386   0.70586   1.000
    C141    C    0.64865   0.04125   0.64856   1.000
    C142    C    0.62190   0.00239   0.62153   1.000
    C143    C    0.56858   0.05550   0.56828   1.000
    C144    C    0.62143   0.13401   0.62173   1.000
    C145    C    0.56812   0.18714   0.56852   1.000
    C146    C    0.54131   0.14825   0.54140   1.000
    C147    C    0.48397   0.20555   0.48415   1.000
    C148    C    0.98395   0.70455   0.98400   1.000
    C149    C    0.04133   0.64628   0.04138   1.000
    C150    C    0.14866   0.53922   0.14860   1.000
    C151    C    0.20591   0.48269   0.20582   1.000
    C152    C    0.70447   0.98408   0.98409   1.000
    C153    C    0.64626   0.04139   0.04139   1.000
    C154    C    0.53919   0.14866   0.14864   1.000
    C155    C    0.48264   0.20589   0.20587   1.000
    C156    C    0.98396   0.98407   0.70454   1.000
    C157    C    0.04133   0.04138   0.64628   1.000
    C158    C    0.14864   0.14862   0.53924   1.000
    C159    C    0.20589   0.20584   0.48270   1.000
    C160    C    0.53921   0.83356   0.71019   1.000
    C161    C    0.27292   0.97629   0.09978   1.000
    C162    C    0.71014   0.53925   0.83364   1.000
    C163    C    0.09975   0.27276   0.97629   1.000
    C164    C    0.83343   0.71022   0.53920   1.000
    C165    C    0.97640   0.09977   0.27302   1.000
    C166    C    0.83341   0.53917   0.71024   1.000
    C167    C    0.97641   0.27302   0.09978   1.000
    C168    C    0.53918   0.71016   0.83361   1.000
    C169    C    0.27294   0.09977   0.97600   1.000
    C170    C    0.71017   0.83359   0.53924   1.000
    C171    C    0.09974   0.97630   0.27281   1.000
    C172    C    0.53805   0.83406   0.53807   1.000
    C173    C    0.53821   0.71058   0.53786   1.000
    C174    C    0.27198   0.09994   0.27208   1.000
    C175    C    0.27178   0.97649   0.27216   1.000
    C176    C    0.53805   0.53804   0.83409   1.000
    C177    C    0.53820   0.53787   0.71058   1.000
    C178    C    0.27197   0.27207   0.09993   1.000
    C179    C    0.27177   0.27217   0.97648   1.000
    C180    C    0.83405   0.53809   0.53806   1.000
    C181    C    0.71071   0.53798   0.53796   1.000
    C182    C    0.10005   0.27206   0.27208   1.000
    C183    C    0.97668   0.27194   0.27200   1.000
    C184    C    0.65482   0.65485   0.65486   1.000
    C185    C    0.15507   0.15500   0.15500   1.000
    C186    C    0.16653   0.46083   0.28978   1.000
    C187    C    0.02353   0.72698   0.90020   1.000
    C188    C    0.46076   0.28984   0.16641   1.000
    C189    C    0.72700   0.90023   0.02372   1.000
    C190    C    0.28978   0.16642   0.46078   1.000
    C191    C    0.90020   0.02370   0.72720   1.000
    C192    C    0.46073   0.16644   0.28983   1.000
    C193    C    0.72703   0.02371   0.90020   1.000
    C194    C    0.28980   0.46075   0.16638   1.000
    C195    C    0.90019   0.72724   0.02373   1.000
    C196    C    0.16651   0.28979   0.46082   1.000
    C197    C    0.02354   0.90023   0.72700   1.000
    C198    C    0.16590   0.46192   0.46196   1.000
    C199    C    0.28923   0.46202   0.46200   1.000
    C200    C    0.89989   0.72795   0.72794   1.000
    C201    C    0.02326   0.72806   0.72802   1.000
    C202    C    0.46189   0.46196   0.16593   1.000
    C203    C    0.46174   0.46213   0.28944   1.000
    C204    C    0.72797   0.72794   0.90009   1.000
    C205    C    0.72817   0.72784   0.02354   1.000
    C206    C    0.46190   0.16594   0.46195   1.000
    C207    C    0.46172   0.28942   0.46217   1.000
    C208    C    0.72797   0.90007   0.72793   1.000
    C209    C    0.72816   0.02351   0.72786   1.000
    C210    C    0.34513   0.34516   0.34515   1.000
    C211    C    0.84487   0.84500   0.84502   1.000
    O212    O    0.63527   0.63505   0.02183   1.000
    O213    O    0.59524   0.59492   0.02894   1.000
    O214    O    0.63255   0.63206   0.96646   1.000
    O215    O    0.08767   0.63263   0.02198   1.000
    O216    O    0.16066   0.59244   0.02919   1.000
    O217    O    0.14863   0.62957   0.96658   1.000
    O218    O    0.63269   0.08777   0.02200   1.000
    O219    O    0.59257   0.16078   0.02921   1.000
    O220    O    0.62976   0.14881   0.96661   1.000
    O221    O    0.28420   0.99611   0.05785   1.000
    O222    O    0.32458   0.98727   0.98728   1.000
    O223    O    0.28421   0.05785   0.99596   1.000
    O224    O    0.99620   0.28424   0.05785   1.000
    O225    O    0.98730   0.32459   0.98728   1.000
    O226    O    0.05787   0.28411   0.99611   1.000
    O227    O    0.28295   0.28311   0.05803   1.000
    O228    O    0.32261   0.32281   0.98744   1.000
    O229    O    0.28285   0.28316   0.99630   1.000
    O230    O    0.76480   0.76465   0.99962   1.000
    O231    O    0.71709   0.71684   0.00371   1.000
    O232    O    0.76421   0.85085   0.99971   1.000
    O233    O    0.71573   0.94215   0.00390   1.000
    O234    O    0.85081   0.76436   0.99972   1.000
    O235    O    0.94207   0.71590   0.00386   1.000
    O236    O    0.23573   0.14915   0.00015   1.000
    O237    O    0.14914   0.23565   0.00030   1.000
    O238    O    0.23514   0.23535   0.00039   1.000
    O239    O    0.55807   0.55767   0.04063   1.000
    O240    O    0.22324   0.55526   0.04103   1.000
    O241    O    0.55544   0.22337   0.04106   1.000
    O242    O    0.63504   0.63512   0.08766   1.000
    O243    O    0.67733   0.67720   0.01258   1.000
    O244    O    0.02201   0.63280   0.08776   1.000
    O245    O    0.01264   0.67542   0.01269   1.000
    O246    O    0.63270   0.02202   0.08777   1.000
    O247    O    0.67536   0.01273   0.01274   1.000
    O248    O    0.55495   0.55484   0.10187   1.000
    O249    O    0.16798   0.55256   0.10220   1.000
    O250    O    0.55261   0.16803   0.10222   1.000
    O251    O    0.85131   0.37044   0.03341   1.000
    O252    O    0.37018   0.85119   0.03340   1.000
    O253    O    0.36739   0.36794   0.03356   1.000
    O254    O    0.23572   0.00031   0.14916   1.000
    O255    O    0.00046   0.23578   0.14916   1.000
    O256    O    0.23526   0.23534   0.14927   1.000
    O257    O    0.63208   0.63244   0.14868   1.000
    O258    O    0.59478   0.59509   0.16061   1.000
    O259    O    0.96670   0.63003   0.14882   1.000
    O260    O    0.02932   0.59276   0.16076   1.000
    O261    O    0.62978   0.96664   0.14883   1.000
    O262    O    0.59259   0.02926   0.16078   1.000
    O263    O    0.55472   0.55494   0.16771   1.000
    O264    O    0.51265   0.51276   0.17688   1.000
    O265    O    0.10231   0.55272   0.16799   1.000
    O266    O    0.17729   0.51096   0.17721   1.000
    O267    O    0.55262   0.10227   0.16802   1.000
    O268    O    0.51092   0.17727   0.17725   1.000
    O269    O    0.17679   0.08967   0.17677   1.000
    O270    O    0.08979   0.17677   0.17677   1.000
    O271    O    0.47294   0.47305   0.18571   1.000
    O272    O    0.42517   0.42523   0.19028   1.000
    O273    O    0.24786   0.47172   0.18610   1.000
    O274    O    0.33912   0.42462   0.19051   1.000
    O275    O    0.47170   0.24787   0.18614   1.000
    O276    O    0.42460   0.33917   0.19052   1.000
    O277    O    0.55731   0.55782   0.22319   1.000
    O278    O    0.04125   0.55569   0.22335   1.000
    O279    O    0.55547   0.04113   0.22335   1.000
    O280    O    0.23514   0.00041   0.23535   1.000
    O281    O    0.14913   0.00032   0.23568   1.000
    O282    O    0.00059   0.23524   0.23527   1.000
    O283    O    0.00045   0.14916   0.23578   1.000
    O284    O    0.14930   0.23533   0.23535   1.000
    O285    O    0.23526   0.14927   0.23535   1.000
    O286    O    0.47286   0.47313   0.24747   1.000
    O287    O    0.18622   0.47176   0.24780   1.000
    O288    O    0.47169   0.18617   0.24785   1.000
    O289    O    0.99650   0.28300   0.28304   1.000
    O290    O    0.05818   0.28306   0.28308   1.000
    O291    O    0.28295   0.05804   0.28312   1.000
    O292    O    0.28285   0.99632   0.28316   1.000
    O293    O    0.05786   0.99612   0.28415   1.000
    O294    O    0.99619   0.05786   0.28425   1.000
    O295    O    0.42513   0.42544   0.33910   1.000
    O296    O    0.19064   0.42465   0.33909   1.000
    O297    O    0.42458   0.19056   0.33916   1.000
    O298    O    0.98761   0.32272   0.32273   1.000
    O299    O    0.32261   0.98745   0.32281   1.000
    O300    O    0.98730   0.98728   0.32461   1.000
    O301    O    0.27993   0.36681   0.36677   1.000
    O302    O    0.36678   0.27992   0.36683   1.000
    O303    O    0.91256   0.36487   0.36486   1.000
    O304    O    0.97828   0.36485   0.36487   1.000
    O305    O    0.36490   0.91238   0.36487   1.000
    O306    O    0.36467   0.97819   0.36497   1.000
    O307    O    0.97794   0.91225   0.36724   1.000
    O308    O    0.91227   0.97801   0.36738   1.000
    O309    O    0.36787   0.85137   0.36754   1.000
    O310    O    0.85162   0.36764   0.36762   1.000
    O311    O    0.03358   0.36775   0.36780   1.000
    O312    O    0.36739   0.03355   0.36799   1.000
    O313    O    0.03326   0.85121   0.37001   1.000
    O314    O    0.85131   0.03340   0.37043   1.000
    O315    O    0.40516   0.83943   0.40489   1.000
    O316    O    0.83963   0.40498   0.40497   1.000
    O317    O    0.97109   0.40495   0.40498   1.000
    O318    O    0.40470   0.97106   0.40511   1.000
    O319    O    0.97063   0.83925   0.40727   1.000
    O320    O    0.83929   0.97077   0.40755   1.000
    O321    O    0.19062   0.33913   0.42461   1.000
    O322    O    0.19032   0.42519   0.42518   1.000
    O323    O    0.33910   0.19054   0.42464   1.000
    O324    O    0.42516   0.19031   0.42522   1.000
    O325    O    0.33887   0.42538   0.42538   1.000
    O326    O    0.42512   0.33908   0.42546   1.000
    O327    O    0.44264   0.77685   0.44216   1.000
    O328    O    0.44523   0.83231   0.44506   1.000
    O329    O    0.77706   0.44233   0.44229   1.000
    O330    O    0.83244   0.44511   0.44510   1.000
    O331    O    0.95934   0.44217   0.44222   1.000
    O332    O    0.89818   0.44509   0.44512   1.000
    O333    O    0.44187   0.95936   0.44238   1.000
    O334    O    0.44500   0.89813   0.44518   1.000
    O335    O    0.95872   0.77666   0.44434   1.000
    O336    O    0.89765   0.83201   0.44729   1.000
    O337    O    0.77671   0.95892   0.44473   1.000
    O338    O    0.83197   0.89777   0.44743   1.000
    O339    O    0.82317   0.48725   0.48726   1.000
    O340    O    0.48730   0.82310   0.48724   1.000
    O341    O    0.82268   0.82278   0.48904   1.000
    O342    O    0.24783   0.18613   0.47174   1.000
    O343    O    0.18620   0.24782   0.47176   1.000
    O344    O    0.47293   0.18575   0.47305   1.000
    O345    O    0.18566   0.47302   0.47304   1.000
    O346    O    0.24733   0.47307   0.47306   1.000
    O347    O    0.47285   0.24749   0.47316   1.000
    O348    O    0.17727   0.17723   0.51097   1.000
    O349    O    0.17677   0.51276   0.51276   1.000
    O350    O    0.51264   0.17690   0.51277   1.000
    O351    O    0.52709   0.75252   0.52686   1.000
    O352    O    0.52701   0.81426   0.52697   1.000
    O353    O    0.75261   0.52694   0.52693   1.000
    O354    O    0.81428   0.52699   0.52698   1.000
    O355    O    0.81374   0.75219   0.52825   1.000
    O356    O    0.75211   0.81388   0.52827   1.000
    O357    O    0.57482   0.66092   0.57456   1.000
    O358    O    0.66107   0.57462   0.57461   1.000
    O359    O    0.80962   0.57481   0.57480   1.000
    O360    O    0.57478   0.80970   0.57479   1.000
    O361    O    0.80932   0.66088   0.57537   1.000
    O362    O    0.16797   0.10223   0.55258   1.000
    O363    O    0.10229   0.16800   0.55272   1.000
    O364    O    0.66084   0.80946   0.57538   1.000
    O365    O    0.55494   0.10188   0.55484   1.000
    O366    O    0.55471   0.16770   0.55496   1.000
    O367    O    0.10176   0.55491   0.55490   1.000
    O368    O    0.16750   0.55490   0.55490   1.000
    O369    O    0.22323   0.04109   0.55529   1.000
    O370    O    0.04122   0.22334   0.55568   1.000
    O371    O    0.55808   0.04064   0.55764   1.000
    O372    O    0.22288   0.55767   0.55771   1.000
    O373    O    0.04060   0.55783   0.55780   1.000
    O374    O    0.55730   0.22316   0.55786   1.000
    O375    O    0.16065   0.02923   0.59246   1.000
    O376    O    0.02931   0.16076   0.59275   1.000
    O377    O    0.59524   0.02894   0.59490   1.000
    O378    O    0.02885   0.59506   0.59503   1.000
    O379    O    0.16031   0.59502   0.59504   1.000
    O380    O    0.59478   0.16058   0.59512   1.000
    O381    O    0.57482   0.57457   0.66092   1.000
    O382    O    0.63317   0.72009   0.63319   1.000
    O383    O    0.57536   0.80945   0.66085   1.000
    O384    O    0.72001   0.63319   0.63320   1.000
    O385    O    0.80931   0.57536   0.66089   1.000
    O386    O    0.14863   0.96661   0.62959   1.000
    O387    O    0.08767   0.02200   0.63264   1.000
    O388    O    0.96669   0.14880   0.62999   1.000
    O389    O    0.02200   0.08775   0.63278   1.000
    O390    O    0.63255   0.96646   0.63203   1.000
    O391    O    0.63527   0.02182   0.63504   1.000
    O392    O    0.96636   0.63226   0.63222   1.000
    O393    O    0.02166   0.63516   0.63514   1.000
    O394    O    0.14832   0.63236   0.63240   1.000
    O395    O    0.08739   0.63514   0.63515   1.000
    O396    O    0.63207   0.14864   0.63248   1.000
    O397    O    0.63504   0.08763   0.63514   1.000
    O398    O    0.01264   0.01272   0.67541   1.000
    O399    O    0.67733   0.01255   0.67721   1.000
    O400    O    0.01233   0.67729   0.67728   1.000
    O401    O    0.00375   0.94215   0.71577   1.000
    O402    O    0.94208   0.00389   0.71587   1.000
    O403    O    0.71708   0.00369   0.71686   1.000
    O404    O    0.71699   0.94196   0.71689   1.000
    O405    O    0.94176   0.71695   0.71694   1.000
    O406    O    0.00344   0.71701   0.71698   1.000
    O407    O    0.52825   0.81384   0.75217   1.000
    O408    O    0.81372   0.52825   0.75222   1.000
    O409    O    0.52708   0.52687   0.75252   1.000
    O410    O    0.99949   0.85085   0.76423   1.000
    O411    O    0.85081   0.99969   0.76433   1.000
    O412    O    0.76480   0.99959   0.76467   1.000
    O413    O    0.76469   0.85073   0.76467   1.000
    O414    O    0.85064   0.76467   0.76467   1.000
    O415    O    0.99935   0.76477   0.76474   1.000
    O416    O    0.44448   0.95888   0.77664   1.000
    O417    O    0.95869   0.44431   0.77667   1.000
    O418    O    0.44264   0.44219   0.77683   1.000
    O419    O    0.57534   0.66084   0.80949   1.000
    O420    O    0.66082   0.57538   0.80951   1.000
    O421    O    0.57478   0.57477   0.80973   1.000
    O422    O    0.52824   0.75214   0.81388   1.000
    O423    O    0.48903   0.82273   0.82276   1.000
    O424    O    0.75209   0.52829   0.81392   1.000
    O425    O    0.82265   0.48905   0.82281   1.000
    O426    O    0.52700   0.52696   0.81427   1.000
    O427    O    0.48729   0.48725   0.82311   1.000
    O428    O    0.76469   0.76467   0.85074   1.000
    O429    O    0.91015   0.82324   0.82324   1.000
    O430    O    0.99948   0.76423   0.85083   1.000
    O431    O    0.82315   0.91034   0.82325   1.000
    O432    O    0.76423   0.99969   0.85084   1.000
    O433    O    0.44732   0.89773   0.83200   1.000
    O434    O    0.40735   0.97074   0.83923   1.000
    O435    O    0.89763   0.44729   0.83203   1.000
    O436    O    0.97062   0.40724   0.83922   1.000
    O437    O    0.44522   0.44507   0.83230   1.000
    O438    O    0.40516   0.40491   0.83941   1.000
    O439    O    0.03325   0.36998   0.85116   1.000
    O440    O    0.37016   0.03337   0.85119   1.000
    O441    O    0.36786   0.36756   0.85134   1.000
    O442    O    0.44733   0.83197   0.89777   1.000
    O443    O    0.83196   0.44744   0.89781   1.000
    O444    O    0.44499   0.44517   0.89814   1.000
    O445    O    0.97793   0.36721   0.91222   1.000
    O446    O    0.36725   0.97799   0.91224   1.000
    O447    O    0.36490   0.36488   0.91236   1.000
    O448    O    0.71700   0.71690   0.94199   1.000
    O449    O    0.00374   0.71577   0.94210   1.000
    O450    O    0.71575   0.00389   0.94214   1.000
    O451    O    0.44450   0.77664   0.95893   1.000
    O452    O    0.40737   0.83923   0.97078   1.000
    O453    O    0.77670   0.44475   0.95897   1.000
    O454    O    0.83928   0.40756   0.97081   1.000
    O455    O    0.44187   0.44234   0.95939   1.000
    O456    O    0.40470   0.40508   0.97108   1.000
    O457    O    0.36725   0.91224   0.97801   1.000
    O458    O    0.91227   0.36738   0.97803   1.000
    O459    O    0.36467   0.36496   0.97819   1.000
    O460    O    0.63316   0.63318   0.72011   1.000
    O461    O    0.63312   0.63306   0.63306   1.000
    O462    O    0.17679   0.17677   0.08965   1.000
    O463    O    0.17681   0.17680   0.17681   1.000
    O464    O    0.36678   0.36683   0.27990   1.000
    O465    O    0.36682   0.36695   0.36695   1.000
    O466    O    0.82315   0.82324   0.91036   1.000
    O467    O    0.82313   0.82320   0.82321   1.000
loop_
    _geom_bond_atom_site_label_1
    _geom_bond_atom_site_label_2
    _geom_bond_distance
    _geom_bond_site_symmetry_2
    _ccdc_geom_bond_type
    C134   O212      0.70088      .   S
    C133   O212      0.70088      .   S
    C134   O213      0.69546      .   S
    C135   O213      0.69546      .   S
    C134   O214      0.54325  1_554   S
    C56    O214      0.54325      .   S
    C112   O215      0.70174      .   S
    C149   O215      0.70174      .   S
    C112   O216      0.69508      .   S
    C113   O216      0.69508      .   S
    C112   O217      0.54421  1_554   S
    C40    O217      0.54421      .   S
    C118   O218      0.70175      .   S
    C153   O218      0.70175      .   S
    C118   O219      0.69482      .   S
    C119   O219      0.69482      .   S
    C118   O220      0.54422  1_554   S
    C46    O220      0.54422      .   S
    C100   O221      0.63863  1_545   S
    C161   O221      0.63863      .   S
    C100   O222      0.74822  1_544   S
    C101   O222      0.74822      .   S
    C100   O223      0.63902  1_554   S
    C169   O223      0.63902      .   S
    C104   O224      0.63866  1_455   S
    C167   O224      0.63866      .   S
    C104   O225      0.74843  1_454   S
    C105   O225      0.74843      .   S
    C104   O226      0.63859  1_554   S
    C163   O226      0.63859      .   S
    C84    O227      0.63841      .   S
    C178   O227      0.63841      .   S
    C84    O228      0.74836  1_554   S
    C85    O228      0.74836      .   S
    C84    O229      0.63820  1_554   S
    C179   O229      0.63820      .   S
    C205   O230      0.98734  1_554   S
    C11    O230      0.98734      .   S
    C205   O231      0.63819      .   S
    C132   O231      0.63819  1_556   S
    C189   O232      0.98636  1_554   S
    C11    O232      0.98636      .   S
    C189   O233      0.63865      .   S
    C152   O233      0.63865  1_556   S
    C195   O234      0.98643  1_554   S
    C11    O234      0.98643      .   S
    C195   O235      0.63870      .   S
    C148   O235      0.63870  1_556   S
    C3     O236      0.98792      .   S
    C169   O236      0.98792  1_556   S
    C3     O237      0.98644      .   S
    C163   O237      0.98644  1_556   S
    C3     O238      0.98734      .   S
    C179   O238      0.98734  1_556   S
    C57    O239      0.54443      .   S
    C135   O239      0.54443      .   S
    C41    O240      0.54376      .   S
    C113   O240      0.54376      .   S
    C47    O241      0.54376      .   S
    C119   O241      0.54376      .   S
    C133   O242      0.70182      .   S
    C136   O242      0.70182      .   S
    C133   O243      0.74837      .   S
    C132   O243      0.74837  1_556   S
    C149   O244      0.70168      .   S
    C120   O244      0.70168      .   S
    C149   O245      0.74902      .   S
    C148   O245      0.74902  1_656   S
    C153   O246      0.70176      .   S
    C114   O246      0.70176      .   S
    C153   O247      0.74821      .   S
    C152   O247      0.74821  1_566   S
    C135   O248      0.70166      .   S
    C138   O248      0.70166      .   S
    C113   O249      0.70198      .   S
    C150   O249      0.70198      .   S
    C119   O250      0.70227      .   S
    C154   O250      0.70227      .   S
    C22    O251      0.54392      .   S
    C70    O251      0.54392  1_556   S
    C16    O252      0.54422      .   S
    C64    O252      0.54422  1_556   S
    C32    O253      0.54325      .   S
    C86    O253      0.54325  1_556   S
    C161   O254      0.98649  1_565   S
    C1     O254      0.98649      .   S
    C167   O255      0.98649  1_655   S
    C5     O255      0.98649      .   S
    C178   O256      0.98652      .   S
    C7     O256      0.98652      .   S
    C136   O257      0.54437      .   S
    C58    O257      0.54437      .   S
    C136   O258      0.69519      .   S
    C137   O258      0.69519      .   S
    C120   O259      0.54450  1_455   S
    C48    O259      0.54450      .   S
    C120   O260      0.69518      .   S
    C121   O260      0.69518      .   S
    C114   O261      0.54427  1_545   S
    C42    O261      0.54427      .   S
    C114   O262      0.69517      .   S
    C115   O262      0.69517      .   S
    C138   O263      0.70223      .   S
    C137   O263      0.70223      .   S
    C138   O264      0.74782      .   S
    C139   O264      0.74782      .   S
    C150   O265      0.70188      .   S
    C121   O265      0.70188      .   S
    C150   O266      0.74709      .   S
    C151   O266      0.74709      .   S
    C154   O267      0.70188      .   S
    C115   O267      0.70188      .   S
    C154   O268      0.74717      .   S
    C155   O268      0.74717      .   S
    C185   O269      0.98469      .   S
    C1     O269      0.98469      .   S
    C185   O270      0.98459      .   S
    C5     O270      0.98459      .   S
    C202   O271      0.63840      .   S
    C139   O271      0.63840      .   S
    C202   O272      0.98566      .   S
    C10    O272      0.98566      .   S
    C194   O273      0.63922      .   S
    C151   O273      0.63922      .   S
    C194   O274      0.98679      .   S
    C10    O274      0.98679      .   S
    C188   O275      0.63921      .   S
    C155   O275      0.63921      .   S
    C188   O276      0.98671      .   S
    C10    O276      0.98671      .   S
    C137   O277      0.54429      .   S
    C59    O277      0.54429      .   S
    C121   O278      0.54382      .   S
    C49    O278      0.54382      .   S
    C115   O279      0.54346      .   S
    C43    O279      0.54346      .   S
    C1     O280      0.98718      .   S
    C175   O280      0.98718  1_565   S
    C1     O281      0.98649      .   S
    C171   O281      0.98649  1_565   S
    C5     O282      0.98708      .   S
    C183   O282      0.98708  1_655   S
    C5     O283      0.98651      .   S
    C165   O283      0.98651  1_655   S
    C7     O284      0.98665      .   S
    C182   O284      0.98665      .   S
    C7     O285      0.98653      .   S
    C174   O285      0.98653      .   S
    C139   O286      0.63932      .   S
    C203   O286      0.63932      .   S
    C151   O287      0.63921      .   S
    C186   O287      0.63921      .   S
    C155   O288      0.63918      .   S
    C192   O288      0.63918      .   S
    C183   O289      0.63857      .   S
    C92    O289      0.63857  1_455   S
    C182   O290      0.63846      .   S
    C92    O290      0.63846      .   S
    C174   O291      0.63845      .   S
    C76    O291      0.63845      .   S
    C175   O292      0.63836      .   S
    C76    O292      0.63836  1_545   S
    C171   O293      0.63857      .   S
    C108   O293      0.63857  1_545   S
    C165   O294      0.63866      .   S
    C108   O294      0.63866  1_455   S
    C203   O295      0.98654      .   S
    C14    O295      0.98654      .   S
    C186   O296      0.98596      .   S
    C8     O296      0.98596      .   S
    C192   O297      0.98674      .   S
    C12    O297      0.98674      .   S
    C92    O298      0.74832  1_455   S
    C93    O298      0.74832      .   S
    C76    O299      0.74831  1_545   S
    C77    O299      0.74831      .   S
    C108   O300      0.74856  1_445   S
    C109   O300      0.74856      .   S
    C210   O301      0.98325      .   S
    C8     O301      0.98325      .   S
    C210   O302      0.98333      .   S
    C12    O302      0.98333      .   S
    C93    O303      0.70182      .   S
    C96    O303      0.70182      .   S
    C93    O304      0.70091      .   S
    C94    O304      0.70091      .   S
    C77    O305      0.70181      .   S
    C80    O305      0.70181      .   S
    C77    O306      0.70087      .   S
    C78    O306      0.70087      .   S
    C109   O307      0.70174      .   S
    C74    O307      0.70174      .   S
    C109   O308      0.70174      .   S
    C68    O308      0.70174      .   S
    C30    O309      0.54435      .   S
    C80    O309      0.54435      .   S
    C38    O310      0.54437      .   S
    C96    O310      0.54437      .   S
    C36    O311      0.54359      .   S
    C94    O311      0.54359  1_655   S
    C28    O312      0.54335      .   S
    C78    O312      0.54335  1_565   S
    C26    O313      0.54451      .   S
    C74    O313      0.54451  1_655   S
    C20    O314      0.54426      .   S
    C68    O314      0.54426  1_565   S
    C80    O315      0.69521      .   S
    C81    O315      0.69521      .   S
    C96    O316      0.69518      .   S
    C97    O316      0.69518      .   S
    C94    O317      0.69545      .   S
    C95    O317      0.69545      .   S
    C78    O318      0.69549      .   S
    C79    O318      0.69549      .   S
    C74    O319      0.69518      .   S
    C75    O319      0.69518      .   S
    C68    O320      0.69518      .   S
    C69    O320      0.69518      .   S
    C8     O321      0.98655      .   S
    C196   O321      0.98655      .   S
    C8     O322      0.98608      .   S
    C198   O322      0.98608      .   S
    C12    O323      0.98678      .   S
    C190   O323      0.98678      .   S
    C12    O324      0.98562      .   S
    C206   O324      0.98562      .   S
    C14    O325      0.98636      .   S
    C199   O325      0.98636      .   S
    C14    O326      0.98658      .   S
    C207   O326      0.98658      .   S
    C81    O327      0.54432      .   S
    C31    O327      0.54432      .   S
    C81    O328      0.70219      .   S
    C82    O328      0.70219      .   S
    C97    O329      0.54432      .   S
    C39    O329      0.54432      .   S
    C97    O330      0.70216      .   S
    C98    O330      0.70216      .   S
    C95    O331      0.54446      .   S
    C37    O331      0.54446      .   S
    C95    O332      0.70167      .   S
    C98    O332      0.70167      .   S
    C79    O333      0.54442      .   S
    C29    O333      0.54442      .   S
    C79    O334      0.70166      .   S
    C82    O334      0.70166      .   S
    C75    O335      0.54378      .   S
    C27    O335      0.54378      .   S
    C75    O336      0.70187      .   S
    C110   O336      0.70187      .   S
    C69    O337      0.54377      .   S
    C21    O337      0.54377      .   S
    C69    O338      0.70186      .   S
    C110   O338      0.70186      .   S
    C98    O339      0.74783      .   S
    C99    O339      0.74783      .   S
    C82    O340      0.74785      .   S
    C83    O340      0.74785      .   S
    C110   O341      0.74711      .   S
    C111   O341      0.74711      .   S
    C190   O342      0.63922      .   S
    C159   O342      0.63922      .   S
    C196   O343      0.63919      .   S
    C159   O343      0.63919      .   S
    C206   O344      0.63883      .   S
    C147   O344      0.63883      .   S
    C198   O345      0.63885      .   S
    C131   O345      0.63885      .   S
    C199   O346      0.63878      .   S
    C131   O346      0.63878      .   S
    C207   O347      0.63886      .   S
    C147   O347      0.63886      .   S
    C159   O348      0.74711      .   S
    C158   O348      0.74711      .   S
    C131   O349      0.74781      .   S
    C130   O349      0.74781      .   S
    C147   O350      0.74785      .   S
    C146   O350      0.74785      .   S
    C83    O351      0.63885      .   S
    C173   O351      0.63885      .   S
    C83    O352      0.63886      .   S
    C172   O352      0.63886      .   S
    C99    O353      0.63886      .   S
    C181   O353      0.63886      .   S
    C99    O354      0.63883      .   S
    C180   O354      0.63883      .   S
    C111   O355      0.63918      .   S
    C164   O355      0.63918      .   S
    C111   O356      0.63922      .   S
    C170   O356      0.63922      .   S
    C173   O357      0.98655      .   S
    C6     O357      0.98655      .   S
    C181   O358      0.98669      .   S
    C6     O358      0.98669      .   S
    C180   O359      0.98549      .   S
    C4     O359      0.98549      .   S
    C172   O360      0.98560      .   S
    C0     O360      0.98560      .   S
    C164   O361      0.98656      .   S
    C4     O361      0.98656      .   S
    C158   O362      0.70186      .   S
    C123   O362      0.70186      .   S
    C158   O363      0.70188      .   S
    C117   O363      0.70188      .   S
    C170   O364      0.98678      .   S
    C0     O364      0.98678      .   S
    C146   O365      0.70166      .   S
    C143   O365      0.70166      .   S
    C146   O366      0.70219      .   S
    C145   O366      0.70219      .   S
    C130   O367      0.70168      .   S
    C127   O367      0.70168      .   S
    C130   O368      0.70192      .   S
    C129   O368      0.70192      .   S
    C51    O369      0.54378      .   S
    C123   O369      0.54378      .   S
    C45    O370      0.54378      .   S
    C117   O370      0.54378      .   S
    C61    O371      0.54441      .   S
    C143   O371      0.54441      .   S
    C55    O372      0.54435      .   S
    C129   O372      0.54435      .   S
    C53    O373      0.54444      .   S
    C127   O373      0.54444      .   S
    C63    O374      0.54432      .   S
    C145   O374      0.54432      .   S
    C123   O375      0.69518      .   S
    C122   O375      0.69518      .   S
    C117   O376      0.69518      .   S
    C116   O376      0.69518      .   S
    C143   O377      0.69550      .   S
    C142   O377      0.69550      .   S
    C127   O378      0.69547      .   S
    C126   O378      0.69547      .   S
    C129   O379      0.69540      .   S
    C128   O379      0.69540      .   S
    C145   O380      0.69521      .   S
    C144   O380      0.69521      .   S
    C6     O381      0.98654      .   S
    C177   O381      0.98654      .   S
    C0     O382      0.98333      .   S
    C184   O382      0.98333      .   S
    C0     O383      0.98674      .   S
    C160   O383      0.98674      .   S
    C4     O384      0.98324      .   S
    C184   O384      0.98324      .   S
    C4     O385      0.98655      .   S
    C166   O385      0.98655      .   S
    C122   O386      0.54426  1_545   S
    C50    O386      0.54426      .   S
    C122   O387      0.70174      .   S
    C157   O387      0.70174      .   S
    C116   O388      0.54450  1_455   S
    C44    O388      0.54450      .   S
    C116   O389      0.70174      .   S
    C157   O389      0.70174      .   S
    C142   O390      0.54335  1_545   S
    C60    O390      0.54335      .   S
    C142   O391      0.70085      .   S
    C141   O391      0.70085      .   S
    C126   O392      0.54359  1_455   S
    C52    O392      0.54359      .   S
    C126   O393      0.70085      .   S
    C125   O393      0.70085      .   S
    C128   O394      0.54435      .   S
    C54    O394      0.54435      .   S
    C128   O395      0.70183      .   S
    C125   O395      0.70183      .   S
    C144   O396      0.54433      .   S
    C62    O396      0.54433      .   S
    C144   O397      0.70181      .   S
    C141   O397      0.70181      .   S
    C157   O398      0.74856      .   S
    C156   O398      0.74856  1_665   S
    C141   O399      0.74831      .   S
    C140   O399      0.74831  1_565   S
    C125   O400      0.74839      .   S
    C124   O400      0.74839  1_655   S
    C156   O401      0.63866  1_655   S
    C197   O401      0.63866      .   S
    C156   O402      0.63857  1_565   S
    C191   O402      0.63857      .   S
    C140   O403      0.63832  1_565   S
    C209   O403      0.63832      .   S
    C140   O404      0.63845      .   S
    C208   O404      0.63845      .   S
    C124   O405      0.63846      .   S
    C200   O405      0.63846      .   S
    C124   O406      0.63853  1_655   S
    C201   O406      0.63853      .   S
    C160   O407      0.63918      .   S
    C103   O407      0.63918      .   S
    C166   O408      0.63921      .   S
    C107   O408      0.63921      .   S
    C177   O409      0.63883      .   S
    C91    O409      0.63883      .   S
    C197   O410      0.98650  1_455   S
    C9     O410      0.98650      .   S
    C191   O411      0.98649  1_545   S
    C13    O411      0.98649      .   S
    C209   O412      0.98722  1_545   S
    C13    O412      0.98722      .   S
    C208   O413      0.98655      .   S
    C15    O413      0.98655      .   S
    C200   O414      0.98665      .   S
    C15    O414      0.98665      .   S
    C201   O415      0.98704  1_455   S
    C9     O415      0.98704      .   S
    C25    O416      0.54383      .   S
    C73    O416      0.54383      .   S
    C19    O417      0.54382      .   S
    C67    O417      0.54382      .   S
    C35    O418      0.54429      .   S
    C89    O418      0.54429      .   S
    C2     O419      0.98677      .   S
    C168   O419      0.98677      .   S
    C2     O420      0.98684      .   S
    C162   O420      0.98684      .   S
    C2     O421      0.98564      .   S
    C176   O421      0.98564      .   S
    C103   O422      0.63921      .   S
    C168   O422      0.63921      .   S
    C103   O423      0.74717      .   S
    C102   O423      0.74717      .   S
    C107   O424      0.63922      .   S
    C162   O424      0.63922      .   S
    C107   O425      0.74709      .   S
    C106   O425      0.74709      .   S
    C91    O426      0.63889      .   S
    C176   O426      0.63889      .   S
    C91    O427      0.74783      .   S
    C90    O427      0.74783      .   S
    C15    O428      0.98652      .   S
    C204   O428      0.98652      .   S
    C9     O429      0.98459      .   S
    C211   O429      0.98459      .   S
    C9     O430      0.98627      .   S
    C187   O430      0.98627  1_455   S
    C13    O431      0.98469      .   S
    C211   O431      0.98469      .   S
    C13    O432      0.98619      .   S
    C193   O432      0.98619  1_545   S
    C73    O433      0.70188      .   S
    C102   O433      0.70188      .   S
    C73    O434      0.69517      .   S
    C72    O434      0.69517      .   S
    C67    O435      0.70188      .   S
    C106   O435      0.70188      .   S
    C67    O436      0.69465      .   S
    C66    O436      0.69465      .   S
    C89    O437      0.70223      .   S
    C90    O437      0.70223      .   S
    C89    O438      0.69520      .   S
    C88    O438      0.69520      .   S
    C18    O439      0.54445      .   S
    C66    O439      0.54445  1_655   S
    C24    O440      0.54427      .   S
    C72    O440      0.54427  1_565   S
    C34    O441      0.54437      .   S
    C88    O441      0.54437      .   S
    C102   O442      0.70183      .   S
    C65    O442      0.70183      .   S
    C106   O443      0.70183      .   S
    C71    O443      0.70183      .   S
    C90    O444      0.70166      .   S
    C87    O444      0.70166      .   S
    C66    O445      0.70226      .   S
    C105   O445      0.70226      .   S
    C72    O446      0.70176      .   S
    C101   O446      0.70176      .   S
    C88    O447      0.70182      .   S
    C85    O447      0.70182      .   S
    C204   O448      0.63840      .   S
    C132   O448      0.63840      .   S
    C187   O449      0.63831      .   S
    C148   O449      0.63831  1_655   S
    C193   O450      0.63891      .   S
    C152   O450      0.63891  1_565   S
    C65    O451      0.54379      .   S
    C17    O451      0.54379      .   S
    C65    O452      0.69521      .   S
    C64    O452      0.69521      .   S
    C71    O453      0.54378      .   S
    C23    O453      0.54378      .   S
    C71    O454      0.69521      .   S
    C70    O454      0.69521      .   S
    C87    O455      0.54443      .   S
    C33    O455      0.54443      .   S
    C87    O456      0.69547      .   S
    C86    O456      0.69547      .   S
    C101   O457      0.70175      .   S
    C64    O457      0.70175      .   S
    C105   O458      0.70174      .   S
    C70    O458      0.70174      .   S
    C85    O459      0.70088      .   S
    C86    O459      0.70088      .   S
    C184   O460      0.98335      .   S
    C2     O460      0.98335      .   S
    C184   O461      0.98373      .   S
    C6     O461      0.98373      .   S
    C185   O462      0.98470      .   S
    C3     O462      0.98470      .   S
    C185   O463      0.98475      .   S
    C7     O463      0.98475      .   S
    C210   O464      0.98335      .   S
    C10    O464      0.98335      .   S
    C210   O465      0.98381      .   S
    C14    O465      0.98381      .   S
    C211   O466      0.98470      .   S
    C11    O466      0.98470      .   S
    C211   O467      0.98473      .   S
    C15    O467      0.98473      .   S
