# CIF file generated by openbabel 2.4.90, see http://openbabel.sf.net
data_I
_chemical_name_common ''
_cell_length_a 13.804
_cell_length_b 13.84
_cell_length_c 13.922
_cell_angle_alpha 108.749
_cell_angle_beta 89.966
_cell_angle_gamma 90.155
_space_group_name_H-M_alt 'P 1'
_space_group_name_Hall 'P 1'
loop_
    _symmetry_equiv_pos_as_xyz
    x,y,z
loop_
    _atom_site_label
    _atom_site_type_symbol
    _atom_site_fract_x
    _atom_site_fract_y
    _atom_site_fract_z
    _atom_site_occupancy
    C0      C    0.91070   0.92234   0.12394   1.000
    C1      C    0.64517   0.92789   0.37576   1.000
    C2      C    0.41195   0.07676   0.37485   1.000
    C3      C    0.14353   0.07250   0.12631   1.000
    C4      C    0.08926   0.07770   0.87602   1.000
    C5      C    0.35481   0.07215   0.62422   1.000
    C6      C    0.58803   0.92328   0.62510   1.000
    C7      C    0.85643   0.92755   0.87367   1.000
