# CIF file generated by openbabel 2.4.90, see http://openbabel.sf.net
data_I
_chemical_name_common ''
_cell_length_a 13.804
_cell_length_b 13.84
_cell_length_c 13.922
_cell_angle_alpha 108.749
_cell_angle_beta 89.966
_cell_angle_gamma 90.155
_space_group_name_H-M_alt 'P 1'
_space_group_name_Hall 'P 1'
loop_
    _symmetry_equiv_pos_as_xyz
    x,y,z
loop_
    _atom_site_label
    _atom_site_type_symbol
    _atom_site_fract_x
    _atom_site_fract_y
    _atom_site_fract_z
    _atom_site_occupancy
    N0      N    0.18609   0.43691   0.81334   1.000
    N1      N    0.68538   0.56345   0.68556   1.000
    N2      N    0.31459   0.43660   0.31405   1.000
    N3      N    0.81388   0.56313   0.18662   1.000
    Zr4     Zr   0.49999   0.00002   0.49998   1.000
    O5      O    0.37559   0.13416   0.61853   1.000
    O6      O    0.43153   0.81892   0.43630   1.000
    O7      O    0.62438   0.86588   0.38143   1.000
    O8      O    0.57588   0.86526   0.58507   1.000
    O9      O    0.56844   0.18113   0.56357   1.000
    O10     O    0.42409   0.13478   0.41480   1.000
    Zr11    Zr   0.99998   0.00002   0.99998   1.000
    O12     O    0.06865   0.81888   0.93599   1.000
    O13     O    0.12426   0.13410   0.11916   1.000
    O14     O    0.93132   0.18117   0.06397   1.000
    O15     O    0.87570   0.86595   0.88071   1.000
    O16     O    0.07632   0.13508   0.91482   1.000
    O17     O    0.92365   0.86497   0.08514   1.000
loop_
    _geom_bond_atom_site_label_1
    _geom_bond_atom_site_label_2
    _geom_bond_distance
    _geom_bond_site_symmetry_2
    _ccdc_geom_bond_type
    Zr4    O5        2.67645      .   S
    N0     O5        4.94978      .   S
    Zr4    O6        2.55368  1_545   S
    N2     O6        5.26005      .   S
    Zr4    O7        2.67642  1_545   S
    N3     O7        4.94976      .   S
    Zr4    O8        2.72248  1_545   S
    N1     O8        5.04810      .   S
    Zr4    O9        2.55365      .   S
    N1     O9        5.26001      .   S
    Zr4    O10       2.72330      .   S
    N2     O10       5.05012      .   S
    Zr11   O12       2.55995  1_645   S
    N0     O12       5.26605      .   S
    Zr11   O13       2.67331  1_656   S
    N2     O13       4.94345      .   S
    Zr11   O14       2.55995  1_556   S
    N3     O14       5.26597      .   S
    Zr11   O15       2.67379  1_545   S
    N1     O15       4.94450      .   S
    Zr11   O16       2.72434  1_655   S
    N0     O16       5.04972      .   S
    Zr11   O17       2.72436  1_546   S
    N3     O17       5.04973      .   S
