# CIF file generated by openbabel 2.4.90, see http://openbabel.sf.net
data_I
_chemical_name_common ''
_cell_length_a 13.804
_cell_length_b 13.84
_cell_length_c 13.922
_cell_angle_alpha 108.749
_cell_angle_beta 89.966
_cell_angle_gamma 90.155
_space_group_name_H-M_alt 'P 1'
_space_group_name_Hall 'P 1'
loop_
    _symmetry_equiv_pos_as_xyz
    x,y,z
loop_
    _atom_site_label
    _atom_site_type_symbol
    _atom_site_fract_x
    _atom_site_fract_y
    _atom_site_fract_z
    _atom_site_occupancy
    C0      C    0.05781   0.90998   0.96262   1.000
    C1      C    0.55802   0.08941   0.53688   1.000
    C2      C    0.94216   0.09007   0.03730   1.000
    C3      C    0.44196   0.91064   0.46309   1.000
    C4      C    0.88395   0.58368   0.15590   1.000
    C5      C    0.91882   0.72682   0.11296   1.000
    C6      C    0.77178   0.00626   0.26784   1.000
    C7      C    0.68595   0.72803   0.32096   1.000
    C8      C    0.01461   0.29469   0.15535   1.000
    C9      C    0.95509   0.47328   0.22140   1.000
    C10     C    0.66812   0.35832   0.12075   1.000
    C11     C    0.74184   0.18266   0.05379   1.000
    C12     C    0.38590   0.41578   0.34402   1.000
    C13     C    0.42119   0.27208   0.38582   1.000
    C14     C    0.27100   0.99328   0.23269   1.000
    C15     C    0.18553   0.27214   0.18162   1.000
    C16     C    0.51514   0.70685   0.34551   1.000
    C17     C    0.45638   0.52760   0.28035   1.000
    C18     C    0.16912   0.64005   0.38082   1.000
    C19     C    0.24222   0.81661   0.44689   1.000
    C20     C    0.11602   0.41636   0.84402   1.000
    C21     C    0.08114   0.27322   0.88699   1.000
    C22     C    0.22819   0.99378   0.73211   1.000
    C23     C    0.31402   0.27201   0.67900   1.000
    C24     C    0.98536   0.70535   0.84463   1.000
    C25     C    0.04488   0.52676   0.77858   1.000
    C26     C    0.33185   0.64172   0.87922   1.000
    C27     C    0.25813   0.81738   0.94617   1.000
    C28     C    0.61407   0.58427   0.65594   1.000
    C29     C    0.57879   0.72796   0.61415   1.000
    C30     C    0.72897   0.00676   0.76728   1.000
    C31     C    0.81443   0.72791   0.81836   1.000
    C32     C    0.48482   0.29319   0.65440   1.000
    C33     C    0.54357   0.47244   0.71960   1.000
    C34     C    0.83084   0.36001   0.61917   1.000
    C35     C    0.75775   0.18344   0.55308   1.000
    C36     C    0.80458   0.71485   0.21626   1.000
    C37     C    0.86326   0.76668   0.16678   1.000
    C38     C    0.85079   0.87102   0.18398   1.000
    C39     C    0.78097   0.92479   0.25350   1.000
    C40     C    0.72218   0.87283   0.30252   1.000
    C41     C    0.73278   0.76771   0.28330   1.000
    C42     C    0.76192   0.53560   0.20933   1.000
    C43     C    0.93887   0.31274   0.14745   1.000
    C44     C    0.90446   0.41226   0.18370   1.000
    C45     C    0.80585   0.43053   0.17324   1.000
    C46     C    0.74539   0.34680   0.12827   1.000
    C47     C    0.78543   0.24980   0.09213   1.000
    C48     C    0.91070   0.92234   0.12394   1.000
    C49     C    0.64517   0.92789   0.37576   1.000
    C50     C    0.30558   0.28467   0.28441   1.000
    C51     C    0.36477   0.23253   0.33279   1.000
    C52     C    0.35165   0.12819   0.31550   1.000
    C53     C    0.28070   0.07475   0.24701   1.000
    C54     C    0.22148   0.12702   0.19897   1.000
    C55     C    0.23273   0.23215   0.21828   1.000
    C56     C    0.26299   0.46394   0.29279   1.000
    C57     C    0.43954   0.68805   0.35349   1.000
    C58     C    0.40551   0.58817   0.31779   1.000
    C59     C    0.30700   0.56916   0.32840   1.000
    C60     C    0.24629   0.65238   0.37320   1.000
    C61     C    0.28595   0.74978   0.40877   1.000
    C62     C    0.41195   0.07676   0.37485   1.000
    C63     C    0.14353   0.07250   0.12631   1.000
    C64     C    0.19538   0.28519   0.78369   1.000
    C65     C    0.13670   0.23336   0.83318   1.000
    C66     C    0.14918   0.12902   0.81598   1.000
    C67     C    0.21899   0.07525   0.74645   1.000
    C68     C    0.27778   0.12721   0.69743   1.000
    C69     C    0.26719   0.23233   0.71658   1.000
    C70     C    0.23805   0.46444   0.79065   1.000
    C71     C    0.06110   0.68731   0.85253   1.000
    C72     C    0.09550   0.58778   0.81627   1.000
    C73     C    0.19411   0.56951   0.82673   1.000
    C74     C    0.25458   0.65324   0.87170   1.000
    C75     C    0.21454   0.75024   0.90780   1.000
    C76     C    0.08926   0.07770   0.87602   1.000
    C77     C    0.35481   0.07215   0.62422   1.000
    C78     C    0.69438   0.71538   0.71557   1.000
    C79     C    0.63521   0.76751   0.66717   1.000
    C80     C    0.64832   0.87185   0.68445   1.000
    C81     C    0.71926   0.92530   0.75290   1.000
    C82     C    0.77849   0.87303   0.80100   1.000
    C83     C    0.76723   0.76790   0.78170   1.000
    C84     C    0.73696   0.53611   0.70723   1.000
    C85     C    0.56043   0.31200   0.64649   1.000
    C86     C    0.59445   0.41188   0.68210   1.000
    C87     C    0.69297   0.43088   0.67150   1.000
    C88     C    0.75367   0.34766   0.62678   1.000
    C89     C    0.71401   0.25027   0.59121   1.000
    C90     C    0.58803   0.92328   0.62510   1.000
    C91     C    0.85643   0.92755   0.87367   1.000
    C92     C    0.82226   0.60955   0.19608   1.000
    C93     C    0.88072   0.23291   0.10126   1.000
    C94     C    0.32368   0.38998   0.30469   1.000
    C95     C    0.38114   0.76740   0.39930   1.000
    C96     C    0.17770   0.39048   0.80387   1.000
    C97     C    0.11925   0.76714   0.89871   1.000
    C98     C    0.67628   0.61007   0.69520   1.000
    C99     C    0.61882   0.23265   0.60061   1.000
    C100    C    0.67950   0.55029   0.24550   1.000
    C101    C    0.97910   0.86995   0.07118   1.000
    C102    C    0.88685   0.01266   0.12906   1.000
    C103    C    0.66115   0.02030   0.42844   1.000
    C104    C    0.56983   0.87587   0.37933   1.000
    C105    C    0.18000   0.44918   0.25000   1.000
    C106    C    0.48145   0.12867   0.42640   1.000
    C107    C    0.38723   0.98674   0.37047   1.000
    C108    C    0.15861   0.98008   0.07324   1.000
    C109    C    0.06858   0.12490   0.12348   1.000
    C110    C    0.32046   0.44974   0.75446   1.000
    C111    C    0.02088   0.13010   0.92880   1.000
    C112    C    0.11311   0.98737   0.87089   1.000
    C113    C    0.33883   0.97974   0.57150   1.000
    C114    C    0.43014   0.12418   0.62062   1.000
    C115    C    0.81995   0.55087   0.74200   1.000
    C116    C    0.51853   0.87137   0.57354   1.000
    C117    C    0.61273   0.01331   0.62950   1.000
    C118    C    0.84136   0.01998   0.92671   1.000
    C119    C    0.93137   0.87515   0.87652   1.000
    O120    O    0.91144   0.16149   0.06928   1.000
    O121    O    0.00537   0.10748   0.08039   1.000
    O122    O    0.91451   0.05137   0.08318   1.000
    O123    O    0.89176   0.05502   0.98200   1.000
    O124    O    0.98152   0.11009   0.98305   1.000
    O125    O    0.76363   0.21623   0.07296   1.000
    O126    O    0.94490   0.89614   0.09756   1.000
    O127    O    0.01846   0.88996   0.01690   1.000
    O128    O    0.15107   0.02629   0.09978   1.000
    O129    O    0.10821   0.94503   0.01793   1.000
    O130    O    0.83308   0.24135   0.09670   1.000
    O131    O    0.76541   0.29830   0.11020   1.000
    O132    O    0.90980   0.27282   0.12435   1.000
    O133    O    0.89104   0.74675   0.13987   1.000
    O134    O    0.70676   0.35256   0.12451   1.000
    O135    O    0.10606   0.09870   0.12490   1.000
    O136    O    0.89878   0.96750   0.12650   1.000
    O137    O    0.88075   0.89668   0.15396   1.000
    O138    O    0.18251   0.09976   0.16264   1.000
    O139    O    0.77562   0.38866   0.15076   1.000
    O140    O    0.97674   0.30371   0.15140   1.000
    O141    O    0.92167   0.36250   0.16558   1.000
    O142    O    0.85310   0.59662   0.17599   1.000
    O143    O    0.85702   0.81885   0.17538   1.000
    O144    O    0.83392   0.74076   0.19152   1.000
    O145    O    0.85516   0.42140   0.17847   1.000
    O146    O    0.78389   0.48306   0.19128   1.000
    O147    O    0.20913   0.25214   0.19995   1.000
    O148    O    0.92978   0.44277   0.20255   1.000
    O149    O    0.81588   0.89791   0.21874   1.000
    O150    O    0.79209   0.57258   0.20270   1.000
    O151    O    0.81342   0.66220   0.20617   1.000
    O152    O    0.22711   0.17958   0.20863   1.000
    O153    O    0.25109   0.10088   0.22299   1.000
    O154    O    0.72071   0.54294   0.22741   1.000
    O155    O    0.76868   0.74128   0.24978   1.000
    O156    O    0.26915   0.25841   0.25135   1.000
    O157    O    0.27585   0.03401   0.23985   1.000
    O158    O    0.31618   0.10147   0.28125   1.000
    O159    O    0.22149   0.45656   0.27139   1.000
    O160    O    0.77638   0.96552   0.26067   1.000
    O161    O    0.75158   0.89881   0.27801   1.000
    O162    O    0.43095   0.55788   0.29907   1.000
    O163    O    0.72748   0.82027   0.29291   1.000
    O164    O    0.70936   0.74787   0.30213   1.000
    O165    O    0.31463   0.33732   0.29455   1.000
    O166    O    0.33517   0.25860   0.30860   1.000
    O167    O    0.29334   0.42696   0.29874   1.000
    O168    O    0.28499   0.51655   0.31060   1.000
    O169    O    0.68368   0.90036   0.33914   1.000
    O170    O    0.35479   0.40288   0.32436   1.000
    O171    O    0.35821   0.18036   0.32414   1.000
    O172    O    0.38180   0.10248   0.34517   1.000
    O173    O    0.35625   0.57867   0.32309   1.000
    O174    O    0.42252   0.63811   0.33564   1.000
    O175    O    0.27664   0.61077   0.35080   1.000
    O176    O    0.39298   0.25231   0.35930   1.000
    O177    O    0.47734   0.69745   0.34950   1.000
    O178    O    0.41034   0.72773   0.37640   1.000
    O179    O    0.39959   0.03175   0.37266   1.000
    O180    O    0.41460   0.94869   0.41678   1.000
    O181    O    0.20771   0.64622   0.37701   1.000
    O182    O    0.26612   0.70108   0.39098   1.000
    O183    O    0.44670   0.10271   0.40062   1.000
    O184    O    0.60750   0.90188   0.37755   1.000
    O185    O    0.65316   0.97409   0.40210   1.000
    O186    O    0.50589   0.89326   0.42121   1.000
    O187    O    0.33355   0.75859   0.40404   1.000
    O188    O    0.41155   0.83902   0.43120   1.000
    O189    O    0.26409   0.78319   0.42783   1.000
    O190    O    0.51974   0.10904   0.48164   1.000
    O191    O    0.60959   0.05486   0.48266   1.000
    O192    O    0.39039   0.94519   0.51729   1.000
    O193    O    0.48024   0.89101   0.51832   1.000
    O194    O    0.58842   0.16103   0.56874   1.000
    O195    O    0.49408   0.10680   0.57875   1.000
    O196    O    0.58538   0.05136   0.58319   1.000
    O197    O    0.73588   0.21685   0.57215   1.000
    O198    O    0.34682   0.02595   0.59786   1.000
    O199    O    0.55328   0.89732   0.59932   1.000
    O200    O    0.66642   0.24146   0.59591   1.000
    O201    O    0.73384   0.29896   0.60899   1.000
    O202    O    0.58962   0.27232   0.62355   1.000
    O203    O    0.60700   0.74774   0.64066   1.000
    O204    O    0.79226   0.35383   0.62297   1.000
    O205    O    0.39247   0.09817   0.62242   1.000
    O206    O    0.31629   0.09968   0.66082   1.000
    O207    O    0.60038   0.96829   0.62730   1.000
    O208    O    0.61817   0.89756   0.65477   1.000
    O209    O    0.72332   0.38927   0.64914   1.000
    O210    O    0.52262   0.30259   0.65045   1.000
    O211    O    0.57744   0.36194   0.66429   1.000
    O212    O    0.64518   0.59717   0.67557   1.000
    O213    O    0.64176   0.81968   0.67581   1.000
    O214    O    0.66480   0.74145   0.69137   1.000
    O215    O    0.64371   0.42138   0.67680   1.000
    O216    O    0.71496   0.48350   0.68937   1.000
    O217    O    0.29060   0.25217   0.69779   1.000
    O218    O    0.56901   0.44216   0.70085   1.000
    O219    O    0.68379   0.89857   0.71868   1.000
    O220    O    0.70662   0.57309   0.70122   1.000
    O221    O    0.68533   0.66272   0.70538   1.000
    O222    O    0.27248   0.17977   0.70700   1.000
    O223    O    0.24838   0.10123   0.72194   1.000
    O224    O    0.77845   0.54349   0.72462   1.000
    O225    O    0.73081   0.74164   0.74863   1.000
    O226    O    0.23128   0.25876   0.75014   1.000
    O227    O    0.22359   0.03451   0.73928   1.000
    O228    O    0.18408   0.10213   0.78121   1.000
    O229    O    0.72412   0.96603   0.76009   1.000
    O230    O    0.74888   0.89916   0.77695   1.000
    O231    O    0.27925   0.45709   0.77255   1.000
    O232    O    0.07019   0.55727   0.79743   1.000
    O233    O    0.77286   0.82046   0.79135   1.000
    O234    O    0.79083   0.74791   0.80003   1.000
    O235    O    0.18654   0.33783   0.79378   1.000
    O236    O    0.16604   0.25927   0.80844   1.000
    O237    O    0.20787   0.42746   0.79726   1.000
    O238    O    0.21608   0.51698   0.80869   1.000
    O239    O    0.81746   0.90029   0.83734   1.000
    O240    O    0.14686   0.40342   0.82394   1.000
    O241    O    0.14294   0.18119   0.82458   1.000
    O242    O    0.11922   0.10336   0.84600   1.000
    O243    O    0.14481   0.57865   0.82150   1.000
    O244    O    0.07830   0.63755   0.83440   1.000
    O245    O    0.22435   0.61138   0.84921   1.000
    O246    O    0.10892   0.25329   0.86009   1.000
    O247    O    0.02323   0.69633   0.84858   1.000
    O248    O    0.09017   0.72723   0.87562   1.000
    O249    O    0.10118   0.03254   0.87345   1.000
    O250    O    0.08546   0.94868   0.91675   1.000
    O251    O    0.29321   0.64748   0.87546   1.000
    O252    O    0.23456   0.70174   0.88975   1.000
    O253    O    0.89390   0.90135   0.87509   1.000
    O254    O    0.84889   0.97376   0.90019   1.000
    O255    O    0.05507   0.10390   0.90241   1.000
    O256    O    0.99459   0.89257   0.91957   1.000
    O257    O    0.16690   0.75869   0.90326   1.000
    O258    O    0.08853   0.83856   0.93067   1.000
    O259    O    0.23634   0.78381   0.92698   1.000
    O260    O    0.99998   0.00003   0.99996   1.000
    O261    O    0.49999   0.00003   0.49999   1.000
loop_
    _geom_bond_atom_site_label_1
    _geom_bond_atom_site_label_2
    _geom_bond_distance
    _geom_bond_site_symmetry_2
    _ccdc_geom_bond_type
    C2     O120      1.03640      .   S
    C93    O120      1.03640      .   S
    C2     O121      1.04209  1_655   S
    C109   O121      1.04209      .   S
    C2     O122      1.02916      .   S
    C102   O122      1.02916      .   S
    C2     O123      1.03472  1_554   S
    C118   O123      1.03472      .   S
    C2     O124      1.03710  1_554   S
    C111   O124      1.03710  1_455   S
    C11    O125      0.54515      .   S
    C47    O125      0.54515      .   S
    C101   O126      0.63586      .   S
    C48    O126      0.63586      .   S
    C101   O127      1.03743  1_655   S
    C0     O127      1.03743  1_556   S
    C108   O128      0.63621  1_565   S
    C63    O128      0.63621      .   S
    C108   O129      1.03488      .   S
    C0     O129      1.03488  1_556   S
    C47    O130      0.67494      .   S
    C93    O130      0.67494      .   S
    C47    O131      0.69471      .   S
    C46    O131      0.69471      .   S
    C93    O132      0.67409      .   S
    C43    O132      0.67409      .   S
    C5     O133      0.54540      .   S
    C37    O133      0.54540      .   S
    C10    O134      0.54446      .   S
    C46    O134      0.54446      .   S
    C109   O135      0.63642      .   S
    C63    O135      0.63642      .   S
    C48    O136      0.63661      .   S
    C102   O136      0.63661  1_545   S
    C48    O137      0.75246      .   S
    C38    O137      0.75246      .   S
    C63    O138      0.75111      .   S
    C54    O138      0.75111      .   S
    C46    O139      0.70008      .   S
    C45    O139      0.70008      .   S
    C43    O140      0.54470      .   S
    C8     O140      0.54470  1_455   S
    C43    O141      0.69535      .   S
    C44    O141      0.69535      .   S
    C4     O142      0.50953      .   S
    C92    O142      0.50953      .   S
    C37    O143      0.69849      .   S
    C38    O143      0.69849      .   S
    C37    O144      0.69982      .   S
    C36    O144      0.69982      .   S
    C45    O145      0.70065      .   S
    C44    O145      0.70065      .   S
    C45    O146      0.75327      .   S
    C42    O146      0.75327      .   S
    C15    O147      0.54204      .   S
    C55    O147      0.54204      .   S
    C44    O148      0.54529      .   S
    C9     O148      0.54529      .   S
    C38    O149      0.69982      .   S
    C39    O149      0.69982      .   S
    C92    O150      0.68775      .   S
    C42    O150      0.68775      .   S
    C92    O151      0.70726      .   S
    C36    O151      0.70726      .   S
    C54    O152      0.70015      .   S
    C55    O152      0.70015      .   S
    C54    O153      0.69891      .   S
    C53    O153      0.69891      .   S
    C42    O154      0.61729      .   S
    C100   O154      0.61729      .   S
    C36    O155      0.69867      .   S
    C41    O155      0.69867      .   S
    C55    O156      0.69895      .   S
    C50    O156      0.69895      .   S
    C14    O157      0.54394  1_565   S
    C53    O157      0.54394      .   S
    C53    O158      0.69988      .   S
    C52    O158      0.69988      .   S
    C105   O159      0.63838      .   S
    C56    O159      0.63838      .   S
    C39    O160      0.54392      .   S
    C6     O160      0.54392  1_545   S
    C39    O161      0.69878      .   S
    C40    O161      0.69878      .   S
    C17    O162      0.54529      .   S
    C58    O162      0.54529      .   S
    C41    O163      0.70009      .   S
    C40    O163      0.70009      .   S
    C41    O164      0.54249      .   S
    C7     O164      0.54249      .   S
    C50    O165      0.70712      .   S
    C94    O165      0.70712      .   S
    C50    O166      0.69967      .   S
    C51    O166      0.69967      .   S
    C56    O167      0.68759      .   S
    C94    O167      0.68759      .   S
    C56    O168      0.75283      .   S
    C59    O168      0.75283      .   S
    C40    O169      0.75070      .   S
    C49    O169      0.75070      .   S
    C94    O170      0.50945      .   S
    C12    O170      0.50945      .   S
    C52    O171      0.69839      .   S
    C51    O171      0.69839      .   S
    C52    O172      0.75240      .   S
    C62    O172      0.75240      .   S
    C58    O173      0.70056      .   S
    C59    O173      0.70056      .   S
    C58    O174      0.69528      .   S
    C57    O174      0.69528      .   S
    C59    O175      0.70010      .   S
    C60    O175      0.70010      .   S
    C51    O176      0.54540      .   S
    C13    O176      0.54540      .   S
    C16    O177      0.54456      .   S
    C57    O177      0.54456      .   S
    C57    O178      0.67392      .   S
    C95    O178      0.67392      .   S
    C107   O179      0.63669  1_565   S
    C62    O179      0.63669      .   S
    C107   O180      1.02722      .   S
    C3     O180      1.02722      .   S
    C60    O181      0.54442      .   S
    C18    O181      0.54442      .   S
    C60    O182      0.69448      .   S
    C61    O182      0.69448      .   S
    C62    O183      0.63584      .   S
    C106   O183      0.63584      .   S
    C49    O184      0.63663      .   S
    C104   O184      0.63663      .   S
    C49    O185      0.63602      .   S
    C103   O185      0.63602  1_545   S
    C104   O186      1.04266      .   S
    C3     O186      1.04266      .   S
    C95    O187      0.67493      .   S
    C61    O187      0.67493      .   S
    C95    O188      1.03483      .   S
    C3     O188      1.03483      .   S
    C61    O189      0.54514      .   S
    C19    O189      0.54514      .   S
    C106   O190      1.03926      .   S
    C1     O190      1.03926      .   S
    C103   O191      1.03651      .   S
    C1     O191      1.03651      .   S
    C3     O192      1.03634      .   S
    C113   O192      1.03634      .   S
    C3     O193      1.03919      .   S
    C116   O193      1.03919      .   S
    C1     O194      1.03472      .   S
    C99    O194      1.03472      .   S
    C1     O195      1.04265      .   S
    C114   O195      1.04265      .   S
    C1     O196      1.02725      .   S
    C117   O196      1.02725      .   S
    C35    O197      0.54514      .   S
    C89    O197      0.54514      .   S
    C113   O198      0.63609  1_565   S
    C77    O198      0.63609      .   S
    C116   O199      0.63586      .   S
    C90    O199      0.63586      .   S
    C89    O200      0.67488      .   S
    C99    O200      0.67488      .   S
    C89    O201      0.69448      .   S
    C88    O201      0.69448      .   S
    C99    O202      0.67400      .   S
    C85    O202      0.67400      .   S
    C29    O203      0.54537      .   S
    C79    O203      0.54537      .   S
    C34    O204      0.54442      .   S
    C88    O204      0.54442      .   S
    C114   O205      0.63665      .   S
    C77    O205      0.63665      .   S
    C77    O206      0.75067      .   S
    C68    O206      0.75067      .   S
    C90    O207      0.63668      .   S
    C117   O207      0.63668  1_545   S
    C90    O208      0.75231      .   S
    C80    O208      0.75231      .   S
    C88    O209      0.70002      .   S
    C87    O209      0.70002      .   S
    C85    O210      0.54451      .   S
    C32    O210      0.54451      .   S
    C85    O211      0.69526      .   S
    C86    O211      0.69526      .   S
    C28    O212      0.50922      .   S
    C98    O212      0.50922      .   S
    C79    O213      0.69842      .   S
    C80    O213      0.69842      .   S
    C79    O214      0.69968      .   S
    C78    O214      0.69968      .   S
    C87    O215      0.70054      .   S
    C86    O215      0.70054      .   S
    C87    O216      0.75284      .   S
    C84    O216      0.75284      .   S
    C23    O217      0.54211      .   S
    C69    O217      0.54211      .   S
    C86    O218      0.54539      .   S
    C33    O218      0.54539      .   S
    C80    O219      0.69974      .   S
    C81    O219      0.69974      .   S
    C98    O220      0.68778      .   S
    C84    O220      0.68778      .   S
    C98    O221      0.70705      .   S
    C78    O221      0.70705      .   S
    C68    O222      0.70017      .   S
    C69    O222      0.70017      .   S
    C68    O223      0.69878      .   S
    C67    O223      0.69878      .   S
    C84    O224      0.61733      .   S
    C115   O224      0.61733      .   S
    C78    O225      0.69896      .   S
    C83    O225      0.69896      .   S
    C69    O226      0.69896      .   S
    C64    O226      0.69896      .   S
    C22    O227      0.54392  1_565   S
    C67    O227      0.54392      .   S
    C67    O228      0.69984      .   S
    C66    O228      0.69984      .   S
    C81    O229      0.54387      .   S
    C30    O229      0.54387  1_545   S
    C81    O230      0.69918      .   S
    C82    O230      0.69918      .   S
    C110   O231      0.61731      .   S
    C70    O231      0.61731      .   S
    C25    O232      0.54527      .   S
    C72    O232      0.54527      .   S
    C83    O233      0.70015      .   S
    C82    O233      0.70015      .   S
    C83    O234      0.54202      .   S
    C31    O234      0.54202      .   S
    C64    O235      0.70727      .   S
    C96    O235      0.70727      .   S
    C64    O236      0.69985      .   S
    C65    O236      0.69985      .   S
    C70    O237      0.68771      .   S
    C96    O237      0.68771      .   S
    C70    O238      0.75328      .   S
    C73    O238      0.75328      .   S
    C82    O239      0.75110      .   S
    C91    O239      0.75110      .   S
    C96    O240      0.50943      .   S
    C20    O240      0.50943      .   S
    C66    O241      0.69848      .   S
    C65    O241      0.69848      .   S
    C66    O242      0.75246      .   S
    C76    O242      0.75246      .   S
    C72    O243      0.70066      .   S
    C73    O243      0.70066      .   S
    C72    O244      0.69536      .   S
    C71    O244      0.69536      .   S
    C73    O245      0.70007      .   S
    C74    O245      0.70007      .   S
    C65    O246      0.54536      .   S
    C21    O246      0.54536      .   S
    C24    O247      0.54469  1_655   S
    C71    O247      0.54469      .   S
    C71    O248      0.67409      .   S
    C97    O248      0.67409      .   S
    C112   O249      0.63661  1_565   S
    C76    O249      0.63661      .   S
    C112   O250      1.02887      .   S
    C0     O250      1.02887      .   S
    C74    O251      0.54445      .   S
    C26    O251      0.54445      .   S
    C74    O252      0.69470      .   S
    C75    O252      0.69470      .   S
    C91    O253      0.63643      .   S
    C119   O253      0.63643      .   S
    C91    O254      0.63621      .   S
    C118   O254      0.63621  1_545   S
    C76    O255      0.63587      .   S
    C111   O255      0.63587      .   S
    C119   O256      1.04191      .   S
    C0     O256      1.04191  1_455   S
    C97    O257      0.67490      .   S
    C75    O257      0.67490      .   S
    C97    O258      1.03641      .   S
    C0     O258      1.03641      .   S
    C75    O259      0.54520      .   S
    C27    O259      0.54520      .   S
    C0     O260      1.43141  1_465   S
    C2     O260      1.43141  1_554   S
    C1     O261      1.42218      .   S
    C3     O261      1.42218  1_565   S
