# CIF file generated by openbabel 2.4.90, see http://openbabel.sf.net
data_I
_chemical_name_common ''
_cell_length_a 14.331
_cell_length_b 14.334
_cell_length_c 26.528
_cell_angle_alpha 80.065
_cell_angle_beta 80.129
_cell_angle_gamma 86.374
_space_group_name_H-M_alt 'P 1'
_space_group_name_Hall 'P 1'
loop_
    _symmetry_equiv_pos_as_xyz
    x,y,z
loop_
    _atom_site_label
    _atom_site_type_symbol
    _atom_site_fract_x
    _atom_site_fract_y
    _atom_site_fract_z
    _atom_site_occupancy
    Zn0     Zn   0.14478   0.59291   0.93165   1.000
    Zn1     Zn   0.82713   0.11896   0.41061   1.000
    Zn2     Zn   0.59635   0.14497   0.43131   1.000
    Zn3     Zn   0.17285   0.88060   0.58939   1.000
    Zn4     Zn   0.40362   0.85457   0.56870   1.000
    Zn5     Zn   0.88100   0.17627   0.08953   1.000
    Zn6     Zn   0.85523   0.40700   0.06828   1.000
    Zn7     Zn   0.11900   0.82363   0.91044   1.000
    C8      C    0.89486   0.30292   0.98159   1.000
    C9      C    0.30038   0.71132   0.87739   1.000
    C10     C    0.02738   0.63396   0.86207   1.000
    C11     C    0.69884   0.10489   0.51836   1.000
    C12     C    0.97415   0.88672   0.86708   1.000
    C13     C    0.71525   0.30070   0.37759   1.000
    C14     C    0.63416   0.02710   0.36193   1.000
    C15     C    0.10511   0.69660   0.01837   1.000
    C16     C    0.88704   0.97482   0.36664   1.000
    C17     C    0.28486   0.69862   0.62239   1.000
    C18     C    0.36586   0.97258   0.63802   1.000
    C19     C    0.11286   0.02366   0.63367   1.000
    C20     C    0.69961   0.28865   0.12255   1.000
    C21     C    0.97262   0.36598   0.13790   1.000
    C22     C    0.30118   0.89490   0.48163   1.000
    C23     C    0.02579   0.11324   0.13292   1.000
    O24     O    0.24757   0.78597   0.87402   1.000
    O25     O    0.27599   0.62949   0.90200   1.000
    O26     O    0.02858   0.65413   0.90845   1.000
    O27     O    0.09462   0.59237   0.83762   1.000
    O28     O    0.77816   0.10688   0.48780   1.000
    O29     O    0.61734   0.11946   0.50482   1.000
    O30     O    0.95121   0.88033   0.91573   1.000
    O31     O    0.05721   0.86016   0.84594   1.000
    O32     O    0.79011   0.24820   0.37454   1.000
    O33     O    0.63331   0.27598   0.40185   1.000
    O34     O    0.65448   0.02798   0.40830   1.000
    O35     O    0.59270   0.09452   0.33746   1.000
    O36     O    0.10709   0.77575   0.98761   1.000
    O37     O    0.11948   0.61489   0.00513   1.000
    O38     O    0.88071   0.95169   0.41532   1.000
    O39     O    0.86066   0.05800   0.34564   1.000
    O40     O    0.20973   0.75070   0.62515   1.000
    O41     O    0.36686   0.72367   0.59837   1.000
    O42     O    0.34552   0.97168   0.59167   1.000
    O43     O    0.40739   0.90522   0.66250   1.000
    O44     O    0.89294   0.22372   0.01231   1.000
    O45     O    0.88046   0.38458   0.99488   1.000
    O46     O    0.11917   0.04596   0.58493   1.000
    O47     O    0.13926   0.94068   0.65489   1.000
    O48     O    0.75240   0.21398   0.12586   1.000
    O49     O    0.72401   0.37050   0.09798   1.000
    O50     O    0.97142   0.34583   0.09151   1.000
    O51     O    0.90539   0.40757   0.16236   1.000
    O52     O    0.22186   0.89295   0.51218   1.000
    O53     O    0.38268   0.88032   0.49517   1.000
    O54     O    0.04876   0.11963   0.08428   1.000
    O55     O    0.94272   0.13981   0.15405   1.000
    Ts56    Ts   0.14902   0.54524   0.93330   1.000
    Ts57    Ts   0.87328   0.12770   0.41333   1.000
    Ts58    Ts   0.54859   0.14945   0.43302   1.000
    Ts59    Ts   0.12671   0.87179   0.58668   1.000
    Ts60    Ts   0.45139   0.85013   0.56699   1.000
    Ts61    Ts   0.87195   0.13001   0.08681   1.000
    Ts62    Ts   0.85098   0.45467   0.06664   1.000
    Ts63    Ts   0.12804   0.86987   0.91318   1.000
    Og64    Og   0.90247   0.30239   0.96254   1.000
    Og65    Og   0.33394   0.71406   0.86838   1.000
    Og66    Og   0.99752   0.64303   0.85481   1.000
    Og67    Og   0.69912   0.09723   0.53743   1.000
    Og68    Og   0.95076   0.89967   0.85550   1.000
    Og69    Og   0.71787   0.33428   0.36858   1.000
    Og70    Og   0.64323   0.99728   0.35466   1.000
    Og71    Og   0.09751   0.69717   0.03742   1.000
    Og72    Og   0.90000   0.95151   0.35505   1.000
    Og73    Og   0.28231   0.66506   0.63143   1.000
    Og74    Og   0.35678   0.00238   0.64530   1.000
    Og75    Og   0.09996   0.04713   0.64518   1.000
    Og76    Og   0.66605   0.28591   0.13157   1.000
    Og77    Og   0.00248   0.35690   0.14516   1.000
    Og78    Og   0.30089   0.90257   0.46256   1.000
    Og79    Og   0.04916   0.10028   0.14451   1.000
loop_
    _geom_bond_atom_site_label_1
    _geom_bond_atom_site_label_2
    _geom_bond_distance
    _geom_bond_site_symmetry_2
    _ccdc_geom_bond_type
    O37    C15       1.27451      .   S
    O37    Zn0       1.99632  1_554   S
    O44    Zn5       2.02532      .   S
    O44    C8        1.27696  1_554   S
    C15    O36       1.27686  1_554   S
    Zn6    O50       1.97528      .   S
    Zn6    O49       1.97610      .   S
    Zn6    O45       1.99653  1_554   S
    O54    C23       1.26475      .   S
    Zn5    O48       2.01555      .   S
    Zn5    O55       2.03394      .   S
    O50    C21       1.31460      .   S
    O49    C20       1.27809      .   S
    C20    O48       1.27026      .   S
    C23    O55       1.28995  1_455   S
    C21    O51       1.24551      .   S
    O35    C14       1.24567      .   S
    O39    C16       1.28872  1_545   S
    O39    Zn1       2.03664      .   S
    C14    O34       1.31385      .   S
    C16    O38       1.26544      .   S
    O32    C13       1.27006      .   S
    O32    Zn1       2.01670      .   S
    C13    O33       1.27802      .   S
    O33    Zn2       1.97364      .   S
    O34    Zn2       1.96987      .   S
    Zn1    O28       2.02854      .   S
    Zn2    O29       1.99206      .   S
    C22    O53       1.27435      .   S
    C22    O52       1.27674      .   S
    O28    C11       1.27694      .   S
    O53    Zn4       1.99228      .   S
    O29    C11       1.27425      .   S
    O52    Zn3       2.02906      .   S
    Zn4    O42       1.97096      .   S
    Zn4    O41       1.97255      .   S
    O46    C19       1.26622      .   S
    Zn3    O40       2.02084      .   S
    Zn3    O47       2.04191      .   S
    O42    C18       1.31377      .   S
    O41    C17       1.27816      .   S
    C17    O40       1.26975      .   S
    C19    O47       1.28830  1_545   S
    C18    O43       1.24559      .   S
    O27    C10       1.24552      .   S
    O31    C12       1.28996  1_455   S
    O31    Zn7       2.03395      .   S
    C10    O26       1.31460      .   S
    C12    O30       1.26476      .   S
    O24    C9        1.27028      .   S
    O24    Zn7       2.01577      .   S
    C9     O25       1.27811      .   S
    O25    Zn0       1.97602      .   S
    O26    Zn0       1.97539      .   S
    Zn7    O36       2.02523      .   S
    C8     O45       1.27437      .   S
    Zn0    Ts56      0.67662      .   S
    Zn1    Ts57      0.69875      .   S
    Zn2    Ts58      0.67792      .   S
    Zn3    Ts59      0.69887      .   S
    Zn4    Ts60      0.67789      .   S
    Zn5    Ts61      0.70169      .   S
    Zn6    Ts62      0.67658      .   S
    Zn7    Ts63      0.70162      .   S
    C8     Og64      0.49969      .   S
    C9     Og65      0.49980      .   S
    C10    Og66      0.49967  1_455   S
    C11    Og67      0.49959      .   S
    C12    Og68      0.49890      .   S
    C13    Og69      0.49970      .   S
    C14    Og70      0.49958  1_545   S
    C15    Og71      0.49963      .   S
    C16    Og72      0.49873      .   S
    C17    Og73      0.49967      .   S
    C18    Og74      0.49950  1_565   S
    C19    Og75      0.49877      .   S
    C20    Og76      0.49980      .   S
    C21    Og77      0.49968  1_655   S
    C22    Og78      0.49956      .   S
    C23    Og79      0.49887      .   S
