# CIF file generated by openbabel 2.4.90, see http://openbabel.sf.net
data_I
_chemical_name_common ''
_cell_length_a 14.331
_cell_length_b 14.334
_cell_length_c 26.528
_cell_angle_alpha 80.065
_cell_angle_beta 80.129
_cell_angle_gamma 86.374
_space_group_name_H-M_alt 'P 1'
_space_group_name_Hall 'P 1'
loop_
    _symmetry_equiv_pos_as_xyz
    x,y,z
loop_
    _atom_site_label
    _atom_site_type_symbol
    _atom_site_fract_x
    _atom_site_fract_y
    _atom_site_fract_z
    _atom_site_occupancy
    C0      C    0.89486   0.30292   0.98159   1.000
    C1      C    0.30038   0.71132   0.87739   1.000
    C2      C    0.02738   0.63396   0.86207   1.000
    C3      C    0.69884   0.10489   0.51836   1.000
    C4      C    0.97415   0.88672   0.86708   1.000
    C5      C    0.71525   0.30070   0.37759   1.000
    C6      C    0.63416   0.02710   0.36193   1.000
    C7      C    0.10511   0.69660   0.01837   1.000
    C8      C    0.88704   0.97482   0.36664   1.000
    C9      C    0.28486   0.69862   0.62239   1.000
    C10     C    0.36586   0.97258   0.63802   1.000
    C11     C    0.11286   0.02366   0.63367   1.000
    C12     C    0.69961   0.28865   0.12255   1.000
    C13     C    0.97262   0.36598   0.13790   1.000
    C14     C    0.30118   0.89490   0.48163   1.000
    C15     C    0.02579   0.11324   0.13292   1.000
