# CIF file generated by openbabel 2.4.90, see http://openbabel.sf.net
data_I
_chemical_name_common ''
_cell_length_a 14.331
_cell_length_b 14.334
_cell_length_c 26.528
_cell_angle_alpha 80.065
_cell_angle_beta 80.129
_cell_angle_gamma 86.374
_space_group_name_H-M_alt 'P 1'
_space_group_name_Hall 'P 1'
loop_
    _symmetry_equiv_pos_as_xyz
    x,y,z
loop_
    _atom_site_label
    _atom_site_type_symbol
    _atom_site_fract_x
    _atom_site_fract_y
    _atom_site_fract_z
    _atom_site_occupancy
    Zr0     Zr   0.11900   0.82363   0.91044   1.000
    Zr1     Zr   0.14478   0.59291   0.93165   1.000
    Zr2     Zr   0.82713   0.11896   0.41061   1.000
    Zr3     Zr   0.59635   0.14497   0.43131   1.000
    Zr4     Zr   0.17285   0.88060   0.58939   1.000
    Zr5     Zr   0.40362   0.85457   0.56870   1.000
    Zr6     Zr   0.88100   0.17627   0.08953   1.000
    Zr7     Zr   0.85523   0.40700   0.06828   1.000
    Zr8     Zr   0.30038   0.71132   0.87739   1.000
    Zr9     Zr   0.02738   0.63396   0.86207   1.000
    Zr10    Zr   0.69884   0.10489   0.51836   1.000
    Zr11    Zr   0.97415   0.88672   0.86708   1.000
    Zr12    Zr   0.71525   0.30070   0.37759   1.000
    Zr13    Zr   0.63416   0.02710   0.36193   1.000
    Zr14    Zr   0.10511   0.69660   0.01837   1.000
    Zr15    Zr   0.88704   0.97482   0.36664   1.000
    Zr16    Zr   0.28486   0.69862   0.62239   1.000
    Zr17    Zr   0.36586   0.97258   0.63802   1.000
    Zr18    Zr   0.89486   0.30292   0.98159   1.000
    Zr19    Zr   0.11286   0.02366   0.63367   1.000
    Zr20    Zr   0.69961   0.28865   0.12255   1.000
    Zr21    Zr   0.97262   0.36598   0.13790   1.000
    Zr22    Zr   0.30118   0.89490   0.48163   1.000
    Zr23    Zr   0.02579   0.11324   0.13292   1.000
    Zr24    Zr   0.24757   0.78597   0.87402   1.000
    Zr25    Zr   0.27599   0.62949   0.90200   1.000
    Zr26    Zr   0.02858   0.65413   0.90845   1.000
    Zr27    Zr   0.09462   0.59237   0.83762   1.000
    Zr28    Zr   0.77816   0.10688   0.48780   1.000
    Zr29    Zr   0.61734   0.11946   0.50482   1.000
    Zr30    Zr   0.95121   0.88033   0.91573   1.000
    Zr31    Zr   0.05721   0.86016   0.84594   1.000
    Zr32    Zr   0.79011   0.24820   0.37454   1.000
    Zr33    Zr   0.63331   0.27598   0.40185   1.000
    Zr34    Zr   0.65448   0.02798   0.40830   1.000
    Zr35    Zr   0.59270   0.09452   0.33746   1.000
    Zr36    Zr   0.10709   0.77575   0.98761   1.000
    Zr37    Zr   0.11948   0.61489   0.00513   1.000
    Zr38    Zr   0.88071   0.95169   0.41532   1.000
    Zr39    Zr   0.86066   0.05800   0.34564   1.000
    Zr40    Zr   0.20973   0.75070   0.62515   1.000
    Zr41    Zr   0.36686   0.72367   0.59837   1.000
    Zr42    Zr   0.34552   0.97168   0.59167   1.000
    Zr43    Zr   0.40739   0.90522   0.66250   1.000
    Zr44    Zr   0.89294   0.22372   0.01231   1.000
    Zr45    Zr   0.88046   0.38458   0.99488   1.000
    Zr46    Zr   0.11917   0.04596   0.58493   1.000
    Zr47    Zr   0.13926   0.94068   0.65489   1.000
    Zr48    Zr   0.75240   0.21398   0.12586   1.000
    Zr49    Zr   0.72401   0.37050   0.09798   1.000
    Zr50    Zr   0.97142   0.34583   0.09151   1.000
    Zr51    Zr   0.90539   0.40757   0.16236   1.000
    Zr52    Zr   0.22186   0.89295   0.51218   1.000
    Zr53    Zr   0.38268   0.88032   0.49517   1.000
    Zr54    Zr   0.04876   0.11963   0.08428   1.000
    Zr55    Zr   0.94272   0.13981   0.15405   1.000
    O56     O    0.11230   0.65575   0.01175   1.000
    O57     O    0.13213   0.60390   0.96839   1.000
    O58     O    0.88697   0.19999   0.05092   1.000
    O59     O    0.89390   0.26332   0.99695   1.000
    O60     O    0.10610   0.73617   0.00299   1.000
    O61     O    0.91333   0.37642   0.07990   1.000
    O62     O    0.78962   0.38875   0.08313   1.000
    O63     O    0.86785   0.39579   0.03158   1.000
    O64     O    0.03728   0.11643   0.10860   1.000
    O65     O    0.81670   0.19512   0.10769   1.000
    O66     O    0.91186   0.15804   0.12179   1.000
    O67     O    0.97202   0.35590   0.11471   1.000
    O68     O    0.71181   0.32958   0.11027   1.000
    O69     O    0.72600   0.25132   0.12420   1.000
    O70     O    0.98426   0.12653   0.14349   1.000
    O71     O    0.93901   0.38677   0.15013   1.000
    O72     O    0.61343   0.06081   0.34970   1.000
    O73     O    0.87385   0.01641   0.35614   1.000
    O74     O    0.84389   0.08848   0.37813   1.000
    O75     O    0.64432   0.02754   0.38511   1.000
    O76     O    0.88388   0.96325   0.39098   1.000
    O77     O    0.75268   0.27445   0.37606   1.000
    O78     O    0.80862   0.18358   0.39258   1.000
    O79     O    0.67428   0.28834   0.38972   1.000
    O80     O    0.61483   0.21047   0.41658   1.000
    O81     O    0.62542   0.08648   0.41980   1.000
    O82     O    0.80265   0.11292   0.44921   1.000
    O83     O    0.60685   0.13221   0.46806   1.000
    O84     O    0.34193   0.88761   0.48840   1.000
    O85     O    0.26152   0.89392   0.49691   1.000
    O86     O    0.73850   0.10589   0.50308   1.000
    O87     O    0.39315   0.86745   0.53194   1.000
    O88     O    0.65809   0.11218   0.51159   1.000
    O89     O    0.19736   0.88677   0.55079   1.000
    O90     O    0.37457   0.91313   0.58019   1.000
    O91     O    0.38524   0.78912   0.58354   1.000
    O92     O    0.11602   0.03481   0.60930   1.000
    O93     O    0.19129   0.81565   0.60727   1.000
    O94     O    0.15606   0.91064   0.62214   1.000
    O95     O    0.35569   0.97213   0.61485   1.000
    O96     O    0.32586   0.71115   0.61038   1.000
    O97     O    0.24730   0.72466   0.62377   1.000
    O98     O    0.12606   0.98217   0.64428   1.000
    O99     O    0.38663   0.93890   0.65026   1.000
    O100    O    0.06100   0.61317   0.84984   1.000
    O101    O    0.01568   0.87344   0.85651   1.000
    O102    O    0.08810   0.84189   0.87819   1.000
    O103    O    0.02798   0.64405   0.88526   1.000
    O104    O    0.96268   0.88352   0.89141   1.000
    O105    O    0.27397   0.74864   0.87571   1.000
    O106    O    0.18328   0.80480   0.89223   1.000
    O107    O    0.28818   0.67040   0.88970   1.000
    O108    O    0.21038   0.61120   0.91683   1.000
    O109    O    0.08668   0.62352   0.92005   1.000
    O110    O    0.11305   0.79969   0.94902   1.000
    O111    O    0.88766   0.34375   0.98823   1.000
    N112    N    0.71338   0.67720   0.31539   1.000
    O113    O    0.68057   0.82979   0.33321   1.000
    O114    O    0.71628   0.51413   0.33974   1.000
    N115    N    0.75486   0.01094   0.71887   1.000
    O116    O    0.84696   0.95854   0.78429   1.000
    O117    O    0.72706   0.05217   0.63292   1.000
    N118    N    0.01172   0.75528   0.21859   1.000
    O119    O    0.05271   0.72637   0.13276   1.000
    O120    O    0.95910   0.84757   0.28392   1.000
    N121    N    0.32315   0.28825   0.18452   1.000
    O122    O    0.17028   0.32031   0.16665   1.000
    O123    O    0.48621   0.28639   0.16030   1.000
    N124    N    0.67698   0.71169   0.81545   1.000
    O125    O    0.51385   0.71356   0.83966   1.000
    O126    O    0.82979   0.67963   0.83332   1.000
    N127    N    0.24505   0.99052   0.28115   1.000
    O128    O    0.15295   0.04216   0.21572   1.000
    O129    O    0.27290   0.94846   0.36708   1.000
    N130    N    0.99021   0.24412   0.78139   1.000
    O131    O    0.94824   0.27312   0.86720   1.000
    O132    O    0.04186   0.15149   0.71616   1.000
    N133    N    0.79178   0.84374   0.57121   1.000
    O134    O    0.94771   0.85556   0.57827   1.000
    O135    O    0.63353   0.84582   0.56867   1.000
    N136    N    0.20851   0.15587   0.42881   1.000
    O137    O    0.36661   0.15378   0.43134   1.000
    O138    O    0.05243   0.14397   0.42175   1.000
    N139    N    0.15594   0.20535   0.92885   1.000
    O140    O    0.15354   0.36338   0.93149   1.000
    O141    O    0.14425   0.04917   0.92170   1.000
    N142    N    0.84403   0.79471   0.07115   1.000
    O143    O    0.84644   0.63660   0.06848   1.000
    O144    O    0.85572   0.95079   0.07830   1.000
    N145    N    0.28682   0.32244   0.68469   1.000
    O146    O    0.31953   0.16986   0.66682   1.000
    O147    O    0.28393   0.48536   0.66032   1.000
loop_
    _geom_bond_atom_site_label_1
    _geom_bond_atom_site_label_2
    _geom_bond_distance
    _geom_bond_site_symmetry_2
    _ccdc_geom_bond_type
    Zr37   O56       0.63725      .   S
    Zr14   O56       0.63725      .   S
    Zr37   O57       0.99816  1_554   S
    Zr1    O57       0.99816      .   S
    Zr44   O58       1.01266      .   S
    Zr6    O58       1.01266      .   S
    Zr44   O59       0.63848  1_554   S
    Zr18   O59       0.63848      .   S
    Zr14   O60       0.63843      .   S
    Zr36   O60       0.63843  1_556   S
    Zr7    O61       0.98764      .   S
    Zr50   O61       0.98764      .   S
    Zr7    O62       0.98805      .   S
    Zr49   O62       0.98805      .   S
    Zr7    O63       0.99827      .   S
    Zr45   O63       0.99827  1_556   S
    Zr54   O64       0.63238      .   S
    Zr23   O64       0.63238      .   S
    Zr6    O65       1.00778      .   S
    Zr48   O65       1.00778      .   S
    Zr6    O66       1.01697      .   S
    Zr55   O66       1.01697      .   S
    Zr50   O67       0.65730      .   S
    Zr21   O67       0.65730      .   S
    Zr49   O68       0.63905      .   S
    Zr20   O68       0.63905      .   S
    Zr20   O69       0.63513      .   S
    Zr48   O69       0.63513      .   S
    Zr23   O70       0.64497  1_455   S
    Zr55   O70       0.64497      .   S
    Zr21   O71       0.62275      .   S
    Zr51   O71       0.62275      .   S
    Zr35   O72       0.62284      .   S
    Zr13   O72       0.62284      .   S
    Zr39   O73       0.64436      .   S
    Zr15   O73       0.64436  1_565   S
    Zr39   O74       1.01832      .   S
    Zr2    O74       1.01832      .   S
    Zr13   O75       0.65692      .   S
    Zr34   O75       0.65692      .   S
    Zr15   O76       0.63272      .   S
    Zr38   O76       0.63272      .   S
    Zr32   O77       0.63503      .   S
    Zr12   O77       0.63503      .   S
    Zr32   O78       1.00835      .   S
    Zr2    O78       1.00835      .   S
    Zr12   O79       0.63901      .   S
    Zr33   O79       0.63901      .   S
    Zr33   O80       0.98682      .   S
    Zr3    O80       0.98682      .   S
    Zr34   O81       0.98494      .   S
    Zr3    O81       0.98494      .   S
    Zr2    O82       1.01427      .   S
    Zr28   O82       1.01427      .   S
    Zr3    O83       0.99603      .   S
    Zr29   O83       0.99603      .   S
    Zr22   O84       0.63718      .   S
    Zr53   O84       0.63718      .   S
    Zr22   O85       0.63837      .   S
    Zr52   O85       0.63837      .   S
    Zr28   O86       0.63847      .   S
    Zr10   O86       0.63847      .   S
    Zr53   O87       0.99614      .   S
    Zr5    O87       0.99614      .   S
    Zr29   O88       0.63713      .   S
    Zr10   O88       0.63713      .   S
    Zr52   O89       1.01453      .   S
    Zr4    O89       1.01453      .   S
    Zr5    O90       0.98548      .   S
    Zr42   O90       0.98548      .   S
    Zr5    O91       0.98627      .   S
    Zr41   O91       0.98627      .   S
    Zr46   O92       0.63311      .   S
    Zr19   O92       0.63311      .   S
    Zr4    O93       1.01042      .   S
    Zr40   O93       1.01042      .   S
    Zr4    O94       1.02096      .   S
    Zr47   O94       1.02096      .   S
    Zr42   O95       0.65688      .   S
    Zr17   O95       0.65688      .   S
    Zr41   O96       0.63908      .   S
    Zr16   O96       0.63908      .   S
    Zr16   O97       0.63488      .   S
    Zr40   O97       0.63488      .   S
    Zr19   O98       0.64415  1_545   S
    Zr47   O98       0.64415      .   S
    Zr17   O99       0.62280      .   S
    Zr43   O99       0.62280      .   S
    Zr27   O100      0.62276      .   S
    Zr9    O100      0.62276      .   S
    Zr31   O101      0.64498      .   S
    Zr11   O101      0.64498  1_655   S
    Zr31   O102      1.01698      .   S
    Zr0    O102      1.01698      .   S
    Zr9    O103      0.65730      .   S
    Zr26   O103      0.65730      .   S
    Zr11   O104      0.63238      .   S
    Zr30   O104      0.63238      .   S
    Zr24   O105      0.63514      .   S
    Zr8    O105      0.63514      .   S
    Zr24   O106      1.00789      .   S
    Zr0    O106      1.00789      .   S
    Zr8    O107      0.63906      .   S
    Zr25   O107      0.63906      .   S
    Zr25   O108      0.98801      .   S
    Zr1    O108      0.98801      .   S
    Zr26   O109      0.98770      .   S
    Zr1    O109      0.98770      .   S
    Zr0    O110      1.01262      .   S
    Zr36   O110      1.01262      .   S
    Zr18   O111      0.63719      .   S
    Zr45   O111      0.63719      .   S
    N112   O113      2.31922      .   S
    Zr13   O113      3.05847  1_545   S
    N112   O114      2.31474      .   S
    Zr12   O114      3.05100      .   S
    N115   O116      2.35127  1_545   S
    Zr11   O116      3.09203      .   S
    N115   O117      2.35025      .   S
    Zr10   O117      3.09215      .   S
    N118   O119      2.35302      .   S
    Zr14   O119      3.09510      .   S
    N118   O120      2.35358  1_455   S
    Zr15   O120      3.09438      .   S
    N121   O122      2.32134      .   S
    Zr21   O122      3.06072  1_655   S
    N121   O123      2.31464      .   S
    Zr20   O123      3.05092      .   S
    N124   O125      2.31557      .   S
    Zr8    O125      3.05184      .   S
    N124   O126      2.32048      .   S
    Zr9    O126      3.05986  1_455   S
    N127   O128      2.34959  1_565   S
    Zr23   O128      3.09013      .   S
    N127   O129      2.35106      .   S
    Zr22   O129      3.09281      .   S
    N130   O131      2.35413      .   S
    Zr18   O131      3.09606      .   S
    N130   O132      2.35250  1_655   S
    Zr19   O132      3.09285      .   S
    N133   O134      2.29337      .   S
    Zr4    O134      3.33706  1_455   S
    N133   O135      2.27864      .   S
    Zr5    O135      3.28907      .   S
    N136   O137      2.27635      .   S
    Zr3    O137      3.28680      .   S
    N136   O138      2.29568      .   S
    Zr2    O138      3.33932  1_655   S
    N139   O140      2.27623      .   S
    Zr1    O140      3.28528      .   S
    N139   O141      2.29788      .   S
    Zr0    O141      3.34525  1_565   S
    N142   O143      2.27742      .   S
    Zr7    O143      3.28638      .   S
    N142   O144      2.29660      .   S
    Zr6    O144      3.34410  1_545   S
    N145   O146      2.31942      .   S
    Zr17   O146      3.05851  1_565   S
    N145   O147      2.31283      .   S
    Zr16   O147      3.04900      .   S
