# CIF file generated by openbabel 2.4.90, see http://openbabel.sf.net
data_I
_chemical_name_common ''
_cell_length_a 13.828
_cell_length_b 15.638
_cell_length_c 15.641
_cell_angle_alpha 90.018
_cell_angle_beta 90.001
_cell_angle_gamma 89.957
_space_group_name_H-M_alt 'P 1'
_space_group_name_Hall 'P 1'
loop_
    _symmetry_equiv_pos_as_xyz
    x,y,z
loop_
    _atom_site_label
    _atom_site_type_symbol
    _atom_site_fract_x
    _atom_site_fract_y
    _atom_site_fract_z
    _atom_site_occupancy
    H0      H    0.49997   0.40681   0.59317   1.000
    H1      H    0.50001   0.59319   0.40678   1.000
    H2      H    1.00000   0.90690   0.90685   1.000
    H3      H    0.00002   0.09311   0.09312   1.000
    H4      H    0.34406   0.23726   0.76280   1.000
    H5      H    0.34397   0.76289   0.23718   1.000
    H6      H    0.84405   0.73729   0.73717   1.000
    H7      H    0.84395   0.26286   0.26278   1.000
    H8      H    0.15593   0.26273   0.26279   1.000
    H9      H    0.15603   0.73715   0.73720   1.000
    H10     H    0.65592   0.76275   0.23716   1.000
    H11     H    0.65601   0.23712   0.76278   1.000
    C12     C    0.50003   0.16291   0.83706   1.000
    C13     C    0.50004   0.22899   0.77098   1.000
    C14     C    0.49999   0.35761   0.64236   1.000
    C15     C    0.49994   0.77102   0.22897   1.000
    C16     C    0.49999   0.64239   0.35759   1.000
    C17     C    0.00005   0.72902   0.72898   1.000
    C18     C    0.00002   0.85769   0.85764   1.000
    C19     C    0.99996   0.27099   0.27098   1.000
    C20     C    1.00000   0.14233   0.14233   1.000
    C21     C    0.41292   0.26112   0.73888   1.000
    C22     C    0.41265   0.32572   0.67420   1.000
    C23     C    0.32073   0.35612   0.64385   1.000
    C24     C    0.41285   0.73895   0.26107   1.000
    C25     C    0.41262   0.67431   0.32567   1.000
    C26     C    0.32072   0.64394   0.35605   1.000
    C27     C    0.91291   0.76116   0.76108   1.000
    C28     C    0.91265   0.82578   0.82573   1.000
    C29     C    0.82071   0.85617   0.85611   1.000
    C30     C    0.91283   0.23892   0.23888   1.000
    C31     C    0.91260   0.17426   0.17426   1.000
    C32     C    0.82069   0.14390   0.14390   1.000
    C33     C    0.08706   0.23885   0.23888   1.000
    C34     C    0.08733   0.17424   0.17423   1.000
    C35     C    0.17927   0.14385   0.14385   1.000
    C36     C    0.08715   0.76109   0.76109   1.000
    C37     C    0.08738   0.82575   0.82571   1.000
    C38     C    0.17929   0.85611   0.85607   1.000
    C39     C    0.58706   0.73888   0.26107   1.000
    C40     C    0.58733   0.67429   0.32570   1.000
    C41     C    0.67925   0.64388   0.35610   1.000
    C42     C    0.58713   0.26105   0.73888   1.000
    C43     C    0.58736   0.32570   0.67428   1.000
    C44     C    0.67926   0.35607   0.64390   1.000
    N45     N    0.54865   0.07238   0.92779   1.000
    N46     N    0.58108   0.12894   0.87133   1.000
    N47     N    0.21426   0.42383   0.57605   1.000
    N48     N    0.30905   0.41705   0.58280   1.000
    N49     N    0.23331   0.32661   0.67345   1.000
    N50     N    0.16686   0.36873   0.63130   1.000
    N51     N    0.21431   0.57616   0.42374   1.000
    N52     N    0.30909   0.58287   0.41696   1.000
    N53     N    0.23328   0.67356   0.32650   1.000
    N54     N    0.16686   0.63143   0.36860   1.000
    N55     N    0.71417   0.92385   0.92390   1.000
    N56     N    0.80897   0.91709   0.91719   1.000
    N57     N    0.73332   0.82660   0.82647   1.000
    N58     N    0.66682   0.86870   0.86861   1.000
    N59     N    0.71420   0.07615   0.07624   1.000
    N60     N    0.80900   0.08283   0.08297   1.000
    N61     N    0.73327   0.17356   0.17350   1.000
    N62     N    0.66681   0.13144   0.13142   1.000
    N63     N    0.28581   0.07617   0.07600   1.000
    N64     N    0.19101   0.08293   0.08277   1.000
    N65     N    0.26666   0.17342   0.17348   1.000
    N66     N    0.33316   0.13132   0.13134   1.000
    N67     N    0.28578   0.92386   0.92372   1.000
    N68     N    0.19098   0.91718   0.91699   1.000
    N69     N    0.26671   0.82645   0.82648   1.000
    N70     N    0.33317   0.86856   0.86856   1.000
    N71     N    0.78572   0.57617   0.42391   1.000
    N72     N    0.69093   0.58297   0.41717   1.000
    N73     N    0.76667   0.67341   0.32652   1.000
    N74     N    0.83312   0.63130   0.36867   1.000
    N75     N    0.45135   0.07223   0.92750   1.000
    N76     N    0.41896   0.12871   0.87090   1.000
    N77     N    0.78567   0.42385   0.57622   1.000
    N78     N    0.69089   0.41713   0.58299   1.000
    N79     N    0.76670   0.32647   0.67340   1.000
    N80     N    0.83312   0.36860   0.63130   1.000
loop_
    _geom_bond_atom_site_label_1
    _geom_bond_atom_site_label_2
    _geom_bond_distance
    _geom_bond_site_symmetry_2
    _ccdc_geom_bond_type
    N63    N64       1.31932      .   S
    N63    N66       1.38637      .   S
    N59    N60       1.31924      .   S
    N59    N62       1.38592      .   S
    N64    C35       1.35865      .   S
    N60    C32       1.35876      .   S
    H3     C20       1.08829  1_455   S
    N66    N65       1.30855      .   S
    N62    N61       1.30850      .   S
    C20    C34       1.39901  1_655   S
    C20    C31       1.39939      .   S
    C35    N65       1.37461      .   S
    C35    C34       1.43765      .   S
    C32    N61       1.37463      .   S
    C32    C31       1.43768      .   S
    C34    C33       1.42930      .   S
    C31    C30       1.42945      .   S
    C15    C39       1.39820      .   S
    C15    C24       1.39825      .   S
    H10    C39       1.08926      .   S
    H5     C24       1.08925      .   S
    C33    H8        1.08922      .   S
    C33    C19       1.39805  1_455   S
    C30    H7        1.08927      .   S
    C30    C19       1.39853      .   S
    C39    C40       1.42932      .   S
    C24    C25       1.42946      .   S
    C25    C26       1.43776      .   S
    C25    C16       1.39904      .   S
    C40    C41       1.43774      .   S
    C40    C16       1.39903      .   S
    N53    C26       1.37462      .   S
    N53    N54       1.30855      .   S
    N73    C41       1.37458      .   S
    N73    N74       1.30850      .   S
    C26    N52       1.35874      .   S
    C41    N72       1.35868      .   S
    C16    H1        1.08823      .   S
    N54    N51       1.38595      .   S
    N74    N71       1.38582      .   S
    N52    N51       1.31927      .   S
    N72    N71       1.31924      .   S
    N47    N48       1.31924      .   S
    N47    N50       1.38574      .   S
    N77    N78       1.31927      .   S
    N77    N80       1.38519      .   S
    N48    C23       1.35869      .   S
    N78    C44       1.35877      .   S
    H0     C14       1.08820      .   S
    N80    N79       1.30861      .   S
    N50    N49       1.30859      .   S
    C14    C22       1.39873      .   S
    C14    C43       1.39902      .   S
    C23    N49       1.37458      .   S
    C23    C22       1.43742      .   S
    C44    N79       1.37427      .   S
    C44    C43       1.43774      .   S
    C22    C21       1.42994      .   S
    C43    C42       1.42952      .   S
    C17    C27       1.39845  1_455   S
    C17    C36       1.39818      .   S
    H6     C27       1.08921      .   S
    H9     C36       1.08924      .   S
    C42    H11       1.08930      .   S
    C42    C13       1.39825      .   S
    C21    H4        1.08928      .   S
    C21    C13       1.39816      .   S
    C27    C28       1.42929      .   S
    C36    C37       1.42945      .   S
    C13    C12       1.46177      .   S
    C37    C38       1.43771      .   S
    C37    C18       1.39901      .   S
    C28    C29       1.43765      .   S
    C28    C18       1.39944  1_655   S
    N57    C29       1.37460      .   S
    N57    N58       1.30854      .   S
    N69    C38       1.37462      .   S
    N69    N70       1.30852      .   S
    C12    N76       1.35052      .   S
    C12    N46       1.35079      .   S
    C38    N68       1.35864      .   S
    C29    N56       1.35865      .   S
    C18    H2        1.08829  1_455   S
    N70    N67       1.38580      .   S
    N58    N55       1.38583      .   S
    N76    N75       1.32829      .   S
    N46    N45       1.32836      .   S
    N68    N67       1.31925      .   S
    N56    N55       1.31925      .   S
    N75    N45       1.34538      .   S
