# CIF file generated by openbabel 2.4.90, see http://openbabel.sf.net
data_I
_chemical_name_common ''
_cell_length_a 13.828
_cell_length_b 15.638
_cell_length_c 15.641
_cell_angle_alpha 90.018
_cell_angle_beta 90.001
_cell_angle_gamma 89.957
_space_group_name_H-M_alt 'P 1'
_space_group_name_Hall 'P 1'
loop_
    _symmetry_equiv_pos_as_xyz
    x,y,z
loop_
    _atom_site_label
    _atom_site_type_symbol
    _atom_site_fract_x
    _atom_site_fract_y
    _atom_site_fract_z
    _atom_site_occupancy
    N0      N    0.00001   0.83823   0.83819   1.000
    N1      N    0.99998   0.16178   0.16177   1.000
    N2      N    0.50000   0.29129   0.70867   1.000
    N3      N    0.49998   0.66181   0.33818   1.000
    Zr4     Zr   0.99999   0.50001   0.49998   1.000
    O5      O    0.99998   0.36646   0.36644   1.000
    O6      O    0.83089   0.54998   0.45003   1.000
    O7      O    0.83089   0.43831   0.56169   1.000
    O8      O    0.00001   0.63355   0.63352   1.000
    O9      O    0.16909   0.54998   0.44999   1.000
    O10     O    0.16909   0.43831   0.56165   1.000
    Zr11    Zr   0.49997   0.91927   0.09499   1.000
    O12     O    0.66905   0.00960   0.10997   1.000
    O13     O    0.33090   0.90967   0.99749   1.000
    O14     O    0.33090   0.00960   0.09743   1.000
    O15     O    0.47660   0.04148   0.96559   1.000
    O16     O    0.49997   0.82610   0.18102   1.000
loop_
    _geom_bond_atom_site_label_1
    _geom_bond_atom_site_label_2
    _geom_bond_distance
    _geom_bond_site_symmetry_2
    _ccdc_geom_bond_type
    Zr4    O5        2.95319      .   S
    N1     O5        4.52613      .   S
    Zr4    O6        2.58581      .   S
    N3     O6        5.20065      .   S
    Zr4    O7        2.70829      .   S
    N2     O7        5.61471      .   S
    Zr4    O8        2.95321  1_655   S
    N0     O8        4.52614      .   S
    Zr4    O9        2.58711  1_655   S
    N3     O9        5.20248      .   S
    Zr4    O10       2.70672  1_655   S
    N2     O10       5.61240      .   S
    Zr11   O12       2.74258  1_565   S
    N1     O12       5.22253      .   S
    Zr11   O13       2.79529  1_554   S
    N0     O13       5.32906      .   S
    Zr11   O14       2.73084  1_565   S
    N1     O14       5.25346  1_655   S
    Zr11   O15       2.80266  1_564   S
    N2     O15       5.61468      .   S
    Zr11   O16       1.98361      .   S
    N3     O16       3.55628      .   S
