# CIF file generated by openbabel 2.4.90, see http://openbabel.sf.net
data_I
_chemical_name_common ''
_cell_length_a 15.826
_cell_length_b 15.805
_cell_length_c 18.637
_cell_angle_alpha 90
_cell_angle_beta 90.002
_cell_angle_gamma 89.996
_space_group_name_H-M_alt 'P 1'
_space_group_name_Hall 'P 1'
loop_
    _symmetry_equiv_pos_as_xyz
    x,y,z
loop_
    _atom_site_label
    _atom_site_type_symbol
    _atom_site_fract_x
    _atom_site_fract_y
    _atom_site_fract_z
    _atom_site_occupancy
    Zr0     Zr   0.69610   0.85890   0.40284   1.000
    Zr1     Zr   0.50382   0.83296   0.68120   1.000
    Zr2     Zr   0.80388   0.14107   0.90283   1.000
    Zr3     Zr   0.99617   0.16702   0.18127   1.000
    Zr4     Zr   0.30389   0.35891   0.09715   1.000
    Zr5     Zr   0.49615   0.33297   0.81873   1.000
    Zr6     Zr   0.19609   0.64106   0.59715   1.000
    Zr7     Zr   0.00382   0.66701   0.31872   1.000
    Zr8     Zr   0.30388   0.14108   0.59715   1.000
    Zr9     Zr   0.49616   0.16702   0.31873   1.000
    Zr10    Zr   0.19610   0.85890   0.09715   1.000
    Zr11    Zr   0.00381   0.83295   0.81870   1.000
    Zr12    Zr   0.69609   0.64106   0.90283   1.000
    Zr13    Zr   0.50383   0.66700   0.18125   1.000
    Zr14    Zr   0.80389   0.35891   0.40283   1.000
    Zr15    Zr   0.99616   0.33297   0.68126   1.000
    N16     N    0.10326   0.32876   0.12304   1.000
    O17     O    0.06681   0.27261   0.14341   1.000
    O18     O    0.17280   0.33861   0.11453   1.000
    N19     N    0.13542   0.48262   0.69511   1.000
    O20     O    0.15627   0.53627   0.65995   1.000
    O21     O    0.08614   0.43203   0.68988   1.000
    N22     N    0.15839   0.87605   0.92701   1.000
    O23     O    0.10399   0.86082   0.89071   1.000
    O24     O    0.17022   0.86984   0.98604   1.000
    N25     N    0.89672   0.67122   0.87693   1.000
    O26     O    0.82717   0.66137   0.88544   1.000
    O27     O    0.93316   0.72737   0.85655   1.000
    N28     N    0.13544   0.01736   0.19511   1.000
    O29     O    0.08616   0.06795   0.18988   1.000
    O30     O    0.15628   0.96371   0.15995   1.000
    N31     N    0.60305   0.69578   0.33101   1.000
    O32     O    0.56739   0.68708   0.27970   1.000
    O33     O    0.63371   0.75281   0.35602   1.000
    N34     N    0.39688   0.19576   0.16898   1.000
    O35     O    0.43256   0.18707   0.22027   1.000
    O36     O    0.36625   0.25281   0.14397   1.000
    N37     N    0.10299   0.80419   0.66893   1.000
    O38     O    0.06734   0.81289   0.72024   1.000
    O39     O    0.13366   0.74715   0.64394   1.000
    N40     N    0.65840   0.87606   0.57295   1.000
    O41     O    0.60400   0.86083   0.60925   1.000
    O42     O    0.67023   0.86985   0.51393   1.000
    N43     N    0.36456   0.98263   0.69512   1.000
    O44     O    0.34371   0.03628   0.65996   1.000
    O45     O    0.41383   0.93203   0.68986   1.000
    N46     N    0.63542   0.01735   0.30486   1.000
    O47     O    0.65627   0.96370   0.34003   1.000
    O48     O    0.58614   0.06794   0.31010   1.000
    N49     N    0.84160   0.37616   0.57296   1.000
    O50     O    0.82976   0.36992   0.51393   1.000
    O51     O    0.89598   0.36089   0.60926   1.000
    N52     N    0.89673   0.82874   0.37696   1.000
    O53     O    0.93317   0.77259   0.35658   1.000
    O54     O    0.82718   0.83859   0.38547   1.000
    N55     N    0.60308   0.80421   0.83098   1.000
    O56     O    0.63372   0.74717   0.85600   1.000
    O57     O    0.56740   0.81290   0.77968   1.000
    N58     N    0.63541   0.48263   0.80485   1.000
    O59     O    0.65626   0.53628   0.84002   1.000
    O60     O    0.58613   0.43204   0.81010   1.000
    N61     N    0.10300   0.69580   0.16895   1.000
    O62     O    0.13368   0.75283   0.14395   1.000
    O63     O    0.06736   0.68709   0.22026   1.000
    N64     N    0.15837   0.62381   0.42664   1.000
    O65     O    0.10399   0.63908   0.39053   1.000
    O66     O    0.17021   0.63006   0.48511   1.000
    N67     N    0.36456   0.51736   0.19512   1.000
    O68     O    0.34371   0.46370   0.15996   1.000
    O69     O    0.41384   0.56794   0.18988   1.000
    N70     N    0.65839   0.62381   0.07296   1.000
    O71     O    0.67022   0.63006   0.01393   1.000
    O72     O    0.60400   0.63908   0.10926   1.000
    N73     N    0.60325   0.17124   0.87692   1.000
    O74     O    0.67280   0.16139   0.88545   1.000
    O75     O    0.56680   0.22739   0.85657   1.000
    N76     N    0.86455   0.51736   0.30486   1.000
    O77     O    0.84370   0.46371   0.34002   1.000
    O78     O    0.91383   0.56794   0.31010   1.000
    N79     N    0.39690   0.30421   0.66888   1.000
    O80     O    0.43257   0.31290   0.72023   1.000
    O81     O    0.36625   0.24717   0.64392   1.000
    N82     N    0.89697   0.19579   0.33104   1.000
    O83     O    0.86630   0.25283   0.35604   1.000
    O84     O    0.93262   0.18709   0.27973   1.000
    N85     N    0.34158   0.37616   0.92702   1.000
    O86     O    0.39597   0.36090   0.89072   1.000
    O87     O    0.32975   0.36992   0.98605   1.000
    N88     N    0.39673   0.82874   0.12304   1.000
    O89     O    0.43317   0.77259   0.14340   1.000
    O90     O    0.32718   0.83859   0.11452   1.000
    N91     N    0.60326   0.32876   0.37690   1.000
    O92     O    0.56681   0.27260   0.35655   1.000
    O93     O    0.67281   0.33860   0.38543   1.000
    N94     N    0.89696   0.30419   0.83103   1.000
    O95     O    0.86629   0.24715   0.85603   1.000
    O96     O    0.93261   0.31289   0.77972   1.000
    N97     N    0.86454   0.98262   0.80486   1.000
    O98     O    0.84369   0.03627   0.84003   1.000
    O99     O    0.91382   0.93203   0.81010   1.000
    N100    N    0.39671   0.67122   0.62308   1.000
    O101    O    0.32716   0.66138   0.61455   1.000
    O102    O    0.43316   0.72737   0.64341   1.000
    N103    N    0.84159   0.12393   0.07296   1.000
    O104    O    0.82975   0.13014   0.01394   1.000
    O105    O    0.89598   0.13916   0.10927   1.000
    N106    N    0.10324   0.17124   0.62302   1.000
    O107    O    0.06680   0.22738   0.64340   1.000
    O108    O    0.17279   0.16139   0.61451   1.000
    N109    N    0.34158   0.12392   0.42701   1.000
    O110    O    0.39597   0.13915   0.39072   1.000
    O111    O    0.32975   0.13013   0.48604   1.000
loop_
    _geom_bond_atom_site_label_1
    _geom_bond_atom_site_label_2
    _geom_bond_distance
    _geom_bond_site_symmetry_2
    _ccdc_geom_bond_type
    N16    O17       1.12445      .   S
    Zr3    O17       2.12909  1_655   S
    N16    O18       1.12291      .   S
    Zr4    O18       2.12404      .   S
    N19    O20       1.12125      .   S
    Zr6    O20       2.12382      .   S
    N19    O21       1.12124      .   S
    Zr15   O21       2.12268  1_655   S
    N22    O23       1.12107      .   S
    Zr11   O23       2.12339      .   S
    N22    O24       1.12022      .   S
    Zr10   O24       2.11796  1_554   S
    N25    O26       1.12291      .   S
    Zr12   O26       2.12403      .   S
    N25    O27       1.12446      .   S
    Zr11   O27       2.12907  1_455   S
    N28    O29       1.12121      .   S
    Zr3    O29       2.12262  1_655   S
    N28    O30       1.12125  1_545   S
    Zr10   O30       2.12378      .   S
    N31    O32       1.11884      .   S
    Zr13   O32       2.11644      .   S
    N31    O33       1.12486      .   S
    Zr0    O33       2.13253      .   S
    N34    O35       1.11871      .   S
    Zr9    O35       2.11665      .   S
    N34    O36       1.12478      .   S
    Zr4    O36       2.13243      .   S
    N37    O38       1.11876      .   S
    Zr11   O38       2.11634      .   S
    N37    O39       1.12481      .   S
    Zr6    O39       2.13249      .   S
    N40    O41       1.12094      .   S
    Zr1    O41       2.12286      .   S
    N40    O42       1.12009      .   S
    Zr0    O42       2.11767      .   S
    N43    O44       1.12130  1_565   S
    Zr8    O44       2.12381      .   S
    N43    O45       1.12125      .   S
    Zr1    O45       2.12264      .   S
    N46    O47       1.12133  1_545   S
    Zr0    O47       2.12390      .   S
    N46    O48       1.12122      .   S
    Zr9    O48       2.12259      .   S
    N49    O50       1.12022      .   S
    Zr14   O50       2.11788      .   S
    N49    O51       1.12104      .   S
    Zr15   O51       2.12333      .   S
    N52    O53       1.12438      .   S
    Zr7    O53       2.12893  1_455   S
    N52    O54       1.12288      .   S
    Zr0    O54       2.12400      .   S
    N55    O56       1.12490      .   S
    Zr12   O56       2.13253      .   S
    N55    O57       1.11884      .   S
    Zr1    O57       2.11691      .   S
    N58    O59       1.12129      .   S
    Zr12   O59       2.12387      .   S
    N58    O60       1.12124      .   S
    Zr5    O60       2.12263      .   S
    N61    O62       1.12485      .   S
    Zr10   O62       2.13251      .   S
    N61    O63       1.11881      .   S
    Zr7    O63       2.11647      .   S
    N64    O65       1.11889      .   S
    Zr7    O65       2.12107      .   S
    N64    O66       1.11003      .   S
    Zr6    O66       2.13498      .   S
    N67    O68       1.12131      .   S
    Zr4    O68       2.12390      .   S
    N67    O69       1.12124      .   S
    Zr13   O69       2.12265      .   S
    N70    O71       1.12023      .   S
    Zr12   O71       2.11790  1_556   S
    N70    O72       1.12101      .   S
    Zr13   O72       2.12333      .   S
    N73    O74       1.12291      .   S
    Zr2    O74       2.12402      .   S
    N73    O75       1.12435      .   S
    Zr5    O75       2.12883      .   S
    N76    O77       1.12128      .   S
    Zr14   O77       2.12385      .   S
    N76    O78       1.12125      .   S
    Zr7    O78       2.12269  1_455   S
    N79    O80       1.11959      .   S
    Zr5    O80       2.11723      .   S
    N79    O81       1.12445      .   S
    Zr8    O81       2.13210      .   S
    N82    O83       1.12481      .   S
    Zr14   O83       2.13246      .   S
    N82    O84       1.11881      .   S
    Zr3    O84       2.11651      .   S
    N85    O86       1.12103      .   S
    Zr5    O86       2.12336      .   S
    N85    O87       1.12022      .   S
    Zr4    O87       2.11789  1_554   S
    N88    O89       1.12442      .   S
    Zr13   O89       2.12890      .   S
    N88    O90       1.12289      .   S
    Zr10   O90       2.12398      .   S
    N91    O92       1.12440      .   S
    Zr9    O92       2.12892      .   S
    N91    O93       1.12292      .   S
    Zr14   O93       2.12405      .   S
    N94    O95       1.12484      .   S
    Zr2    O95       2.13249      .   S
    N94    O96       1.11884      .   S
    Zr15   O96       2.11651      .   S
    N97    O98       1.12129  1_565   S
    Zr2    O98       2.12380      .   S
    N97    O99       1.12123      .   S
    Zr11   O99       2.12264  1_455   S
    N100   O101      1.12290      .   S
    Zr6    O101      2.12402      .   S
    N100   O102      1.12432      .   S
    Zr1    O102      2.12872      .   S
    N103   O104      1.12014      .   S
    Zr2    O104      2.11788  1_556   S
    N103   O105      1.12110      .   S
    Zr3    O105      2.12336      .   S
    N106   O107      1.12441      .   S
    Zr15   O107      2.12893  1_655   S
    N106   O108      1.12289      .   S
    Zr8    O108      2.12402      .   S
    N109   O110      1.12099      .   S
    Zr9    O110      2.12328      .   S
    N109   O111      1.12024      .   S
    Zr8    O111      2.11791      .   S
