# CIF file generated by openbabel 2.4.90, see http://openbabel.sf.net
data_I
_chemical_name_common ''
_cell_length_a 13.19
_cell_length_b 13.947
_cell_length_c 16.988
_cell_angle_alpha 89.974
_cell_angle_beta 89.987
_cell_angle_gamma 90.126
_space_group_name_H-M_alt 'P 1'
_space_group_name_Hall 'P 1'
loop_
    _symmetry_equiv_pos_as_xyz
    x,y,z
loop_
    _atom_site_label
    _atom_site_type_symbol
    _atom_site_fract_x
    _atom_site_fract_y
    _atom_site_fract_z
    _atom_site_occupancy
    N0      N    0.98278   0.21495   0.00079   1.000
    N1      N    0.51662   0.21543   0.50093   1.000
    N2      N    0.29561   0.51948   0.58095   1.000
    N3      N    0.79524   0.48135   0.91798   1.000
    N4      N    0.01716   0.78517   0.99921   1.000
    N5      N    0.20495   0.01923   0.41929   1.000
    N6      N    0.70397   0.98079   0.08129   1.000
    N7      N    0.98270   0.71498   0.49922   1.000
    N8      N    0.70390   0.48088   0.41851   1.000
    N9      N    0.48356   0.78496   0.49903   1.000
    N10     N    0.20487   0.51911   0.08069   1.000
    N11     N    0.94306   0.03473   0.26813   1.000
    N12     N    0.48369   0.28512   0.00083   1.000
    N13     N    0.79513   0.98107   0.58075   1.000
    N14     N    0.29598   0.01951   0.91706   1.000
    N15     N    0.51664   0.71537   0.99919   1.000
    N16     N    0.05541   0.96534   0.73189   1.000
    N17     N    0.55601   0.53690   0.73214   1.000
    N18     N    0.05536   0.46530   0.76808   1.000
    N19     N    0.44294   0.46506   0.26794   1.000
    N20     N    0.44300   0.96514   0.23205   1.000
    N21     N    0.94308   0.53474   0.23183   1.000
    N22     N    0.55700   0.03506   0.76801   1.000
    N23     N    0.01712   0.28522   0.50071   1.000
    Zr24    Zr   0.07532   0.48054   0.59326   1.000
    O25     O    0.06476   0.46611   0.64828   1.000
    O26     O    0.14940   0.49037   0.58750   1.000
    O27     O    0.05443   0.41875   0.56045   1.000
    O28     O    0.04467   0.55481   0.56544   1.000
    Zr29    Zr   0.47604   0.90855   0.07314   1.000
    O30     O    0.55005   0.93438   0.07286   1.000
    O31     O    0.41791   0.94133   0.02395   1.000
    O32     O    0.46055   0.93825   0.12208   1.000
    O33     O    0.48881   0.84223   0.05105   1.000
    O34     O    0.46940   0.91655   0.12739   1.000
    Zr35    Zr   0.57436   0.52038   0.90600   1.000
    O36     O    0.55370   0.58206   0.93905   1.000
    O37     O    0.54435   0.44583   0.93411   1.000
    O38     O    0.56399   0.53514   0.85136   1.000
    O39     O    0.64867   0.51053   0.91177   1.000
    Zr40    Zr   0.42577   0.48013   0.09327   1.000
    O41     O    0.35146   0.48996   0.08741   1.000
    O42     O    0.43571   0.46581   0.14825   1.000
    O43     O    0.44652   0.41844   0.06050   1.000
    O44     O    0.45586   0.55467   0.06543   1.000
    Zr45    Zr   0.47601   0.40859   0.42682   1.000
    O46     O    0.41777   0.44133   0.47550   1.000
    O47     O    0.48880   0.34227   0.44897   1.000
    O48     O    0.46052   0.43825   0.37789   1.000
    O49     O    0.46937   0.41655   0.37258   1.000
    O50     O    0.55000   0.43444   0.42704   1.000
    Zr51    Zr   0.97758   0.09149   0.42690   1.000
    O52     O    0.05140   0.06568   0.42739   1.000
    O53     O    0.91862   0.05888   0.47545   1.000
    O54     O    0.98998   0.15799   0.44894   1.000
    O55     O    0.96175   0.06170   0.37803   1.000
    O56     O    0.97061   0.08339   0.37265   1.000
    Zr57    Zr   0.92453   0.01961   0.09329   1.000
    O58     O    0.93475   0.03399   0.14831   1.000
    O59     O    0.85036   0.00983   0.08765   1.000
    O60     O    0.94543   0.08141   0.06050   1.000
    O61     O    0.95516   0.94533   0.06544   1.000
    Zr62    Zr   0.52362   0.59165   0.57316   1.000
    O63     O    0.51105   0.65801   0.55101   1.000
    O64     O    0.52963   0.58420   0.62748   1.000
    O65     O    0.53904   0.56279   0.62209   1.000
    O66     O    0.58181   0.55897   0.52427   1.000
    O67     O    0.44958   0.56585   0.57275   1.000
    Zr68    Zr   0.02243   0.40862   0.92692   1.000
    O69     O    0.03786   0.43837   0.87802   1.000
    O70     O    0.02786   0.41668   0.87266   1.000
    O71     O    0.08140   0.44125   0.97544   1.000
    O72     O    0.94866   0.43457   0.92706   1.000
    O73     O    0.01001   0.34214   0.94898   1.000
    Zr74    Zr   0.42586   0.98019   0.40672   1.000
    O75     O    0.44654   0.91842   0.43943   1.000
    O76     O    0.35155   0.99005   0.41258   1.000
    O77     O    0.43578   0.96587   0.35174   1.000
    O78     O    0.45594   0.05472   0.43461   1.000
    Zr79    Zr   0.57425   0.02004   0.59333   1.000
    O80     O    0.64856   0.01021   0.58747   1.000
    O81     O    0.54421   0.94555   0.56542   1.000
    O82     O    0.55360   0.08186   0.56060   1.000
    O83     O    0.56429   0.03434   0.64831   1.000
    Zr84    Zr   0.07545   0.98055   0.90669   1.000
    O85     O    0.06485   0.96613   0.85168   1.000
    O86     O    0.14960   0.99039   0.91194   1.000
    O87     O    0.05453   0.91874   0.93949   1.000
    O88     O    0.04479   0.05481   0.93454   1.000
    Zr89    Zr   0.97756   0.59143   0.07306   1.000
    O90     O    0.05136   0.56561   0.07257   1.000
    O91     O    0.91863   0.55891   0.02421   1.000
    O92     O    0.97060   0.58336   0.12729   1.000
    O93     O    0.98996   0.65793   0.05100   1.000
    O94     O    0.96174   0.56168   0.12193   1.000
    Zr95    Zr   0.52396   0.09161   0.92687   1.000
    O96     O    0.44993   0.06584   0.92675   1.000
    O97     O    0.58208   0.05890   0.97565   1.000
    O98     O    0.53059   0.08363   0.87263   1.000
    O99     O    0.51131   0.15805   0.94896   1.000
    O100    O    0.53944   0.06192   0.87795   1.000
    Zr101   Zr   0.02242   0.90860   0.57308   1.000
    O102    O    0.02787   0.91670   0.62734   1.000
    O103    O    0.03787   0.93838   0.62196   1.000
    O104    O    0.08142   0.94128   0.52455   1.000
    O105    O    0.00996   0.84214   0.55102   1.000
    O106    O    0.94863   0.93448   0.57261   1.000
    Zr107   Zr   0.92448   0.51973   0.40670   1.000
    O108    O    0.95512   0.44543   0.43452   1.000
    O109    O    0.93473   0.53407   0.35166   1.000
    O110    O    0.85031   0.50994   0.41227   1.000
    O111    O    0.94537   0.58150   0.43950   1.000
loop_
    _geom_bond_atom_site_label_1
    _geom_bond_atom_site_label_2
    _geom_bond_distance
    _geom_bond_site_symmetry_2
    _ccdc_geom_bond_type
    Zr24   O25       0.96600      .   S
    N18    O25       2.03899      .   S
    Zr24   O26       0.99109      .   S
    N2     O26       1.97306      .   S
    Zr24   O27       1.06240      .   S
    N23    O27       2.17674      .   S
    Zr24   O28       1.20893      .   S
    N7     O28       2.63251  1_655   S
    Zr29   O30       1.03989      .   S
    N6     O30       2.13441      .   S
    Zr29   O31       1.22336      .   S
    N14    O31       2.66086  1_546   S
    Zr29   O32       0.95135      .   S
    N20    O32       1.91970      .   S
    Zr29   O33       1.01278      .   S
    N15    O33       2.01132  1_556   S
    Zr29   O34       0.93250      .   S
    N20    O34       1.93482      .   S
    Zr35   O36       1.06340      .   S
    N15    O36       2.17839      .   S
    Zr35   O37       1.20977      .   S
    N12    O37       2.63408  1_554   S
    Zr35   O38       0.96057      .   S
    N17    O38       2.02823      .   S
    Zr35   O39       0.99484      .   S
    N3     O39       1.97935      .   S
    Zr40   O41       0.99505      .   S
    N10    O41       1.98000      .   S
    Zr40   O42       0.96413      .   S
    N19    O42       2.03553      .   S
    Zr40   O43       1.06130      .   S
    N12    O43       2.17510      .   S
    Zr40   O44       1.20813      .   S
    N15    O44       2.63106  1_556   S
    Zr45   O46       1.21821      .   S
    N2     O46       2.64610      .   S
    Zr45   O47       1.01294      .   S
    N1     O47       2.01122      .   S
    Zr45   O48       0.95066      .   S
    N19    O48       1.91896      .   S
    Zr45   O49       0.93215      .   S
    N19    O49       1.93378      .   S
    Zr45   O50       1.03976      .   S
    N8     O50       2.13426      .   S
    Zr51   O52       1.03883  1_655   S
    N5     O52       2.13223      .   S
    Zr51   O53       1.22053      .   S
    N13    O53       2.64952  1_565   S
    Zr51   O54       1.01331      .   S
    N23    O54       2.01225  1_455   S
    Zr51   O55       0.95151      .   S
    N11    O55       1.92061      .   S
    Zr51   O56       0.93301      .   S
    N11    O56       1.93550      .   S
    Zr57   O58       0.96546      .   S
    N11    O58       2.03846      .   S
    Zr57   O59       0.99207      .   S
    N6     O59       1.97502  1_565   S
    Zr57   O60       1.06190      .   S
    N0     O60       2.17586      .   S
    Zr57   O61       1.20934  1_545   S
    N4     O61       2.63340  1_456   S
    Zr62   O63       1.01295      .   S
    N9     O63       2.01187      .   S
    Zr62   O64       0.93204      .   S
    N17    O64       1.92805      .   S
    Zr62   O65       0.94575      .   S
    N17    O65       1.91715      .   S
    Zr62   O66       1.21995      .   S
    N8     O66       2.64866      .   S
    Zr62   O67       1.03999      .   S
    N2     O67       2.13456      .   S
    Zr68   O69       0.95017      .   S
    N18    O69       1.91868      .   S
    Zr68   O70       0.93129      .   S
    N18    O70       1.93519      .   S
    Zr68   O71       1.22088      .   S
    N10    O71       2.65025  1_554   S
    Zr68   O72       1.03889  1_455   S
    N3     O72       2.13324      .   S
    Zr68   O73       1.01284      .   S
    N0     O73       2.01149  1_654   S
    Zr74   O75       1.06112      .   S
    N9     O75       2.17504      .   S
    Zr74   O76       0.99507      .   S
    N5     O76       1.98009  1_545   S
    Zr74   O77       0.96421      .   S
    N20    O77       2.03547      .   S
    Zr74   O78       1.20878  1_565   S
    N1     O78       2.63216      .   S
    Zr79   O80       0.99492      .   S
    N13    O80       1.97975  1_565   S
    Zr79   O81       1.20819  1_545   S
    N9     O81       2.63126      .   S
    Zr79   O82       1.06179      .   S
    N1     O82       2.17676      .   S
    Zr79   O83       0.96422      .   S
    N22    O83       2.03564      .   S
    Zr84   O85       0.96605      .   S
    N16    O85       2.03892      .   S
    Zr84   O86       0.99146      .   S
    N14    O86       1.97407  1_545   S
    Zr84   O87       1.06217      .   S
    N4     O87       2.17641      .   S
    Zr84   O88       1.20925  1_565   S
    N0     O88       2.63319  1_654   S
    Zr89   O90       1.03873  1_655   S
    N10    O90       2.13195      .   S
    Zr89   O91       1.22379      .   S
    N3     O91       2.65916  1_556   S
    Zr89   O92       0.93261      .   S
    N21    O92       1.93461      .   S
    Zr89   O93       1.01308      .   S
    N4     O93       2.01183  1_456   S
    Zr89   O94       0.95094      .   S
    N21    O94       1.91986      .   S
    Zr95   O96       1.03980      .   S
    N14    O96       2.13590      .   S
    Zr95   O97       1.21817      .   S
    N6     O97       2.64570  1_564   S
    Zr95   O98       0.93225      .   S
    N22    O98       1.93420      .   S
    Zr95   O99       1.01395      .   S
    N12    O99       2.01349  1_554   S
    Zr95   O100      0.95096      .   S
    N22    O100      1.91920      .   S
    Zr101  O102      0.93144      .   S
    N16    O102      1.93578      .   S
    Zr101  O103      0.95062      .   S
    N16    O103      1.91903      .   S
    Zr101  O104      1.22088      .   S
    N5     O104      2.65029  1_545   S
    Zr101  O105      1.01303      .   S
    N7     O105      2.01193  1_655   S
    Zr101  O106      1.03886  1_455   S
    N13    O106      2.13223      .   S
    Zr107  O108      1.20910      .   S
    N23    O108      2.63285  1_455   S
    Zr107  O109      0.96554      .   S
    N21    O109      2.03864      .   S
    Zr107  O110      0.99208      .   S
    N8     O110      1.97511      .   S
    Zr107  O111      1.06206      .   S
    N7     O111      2.17610      .   S
