# CIF file generated by openbabel 2.4.90, see http://openbabel.sf.net
data_I
_chemical_name_common ''
_cell_length_a 20.975
_cell_length_b 18.056
_cell_length_c 18.058
_cell_angle_alpha 120.058
_cell_angle_beta 90.008
_cell_angle_gamma 90.002
_space_group_name_H-M_alt 'P 1'
_space_group_name_Hall 'P 1'
loop_
    _symmetry_equiv_pos_as_xyz
    x,y,z
loop_
    _atom_site_label
    _atom_site_type_symbol
    _atom_site_fract_x
    _atom_site_fract_y
    _atom_site_fract_z
    _atom_site_occupancy
    Zn0     Zn   0.96103   0.92342   0.47000   1.000
    Zn1     Zn   0.12769   0.55051   0.07647   1.000
    Zn2     Zn   0.62769   0.55051   0.07647   1.000
    Zn3     Zn   0.29434   0.52569   0.44929   1.000
    Zn4     Zn   0.79435   0.52569   0.44929   1.000
    Zn5     Zn   0.21102   0.07653   0.52601   1.000
    Zn6     Zn   0.71102   0.07653   0.52601   1.000
    Zn7     Zn   0.37767   0.44956   0.92357   1.000
    Zn8     Zn   0.87767   0.44956   0.92357   1.000
    Zn9     Zn   0.04435   0.47425   0.55074   1.000
    Zn10    Zn   0.54436   0.47425   0.55074   1.000
    Zn11    Zn   0.46103   0.92342   0.47399   1.000
    Br12    Br   0.44755   0.86529   0.32300   1.000
    Br13    Br   0.94755   0.86529   0.32300   1.000
    Br14    Br   0.11416   0.45836   0.13442   1.000
    Br15    Br   0.61416   0.45836   0.13442   1.000
    Br16    Br   0.28077   0.67596   0.54128   1.000
    Br17    Br   0.78078   0.67596   0.54128   1.000
    Br18    Br   0.19753   0.13467   0.67620   1.000
    Br19    Br   0.69754   0.13466   0.67620   1.000
    Br20    Br   0.36416   0.54173   0.86564   1.000
    Br21    Br   0.86416   0.54173   0.86564   1.000
    Br22    Br   0.03077   0.32397   0.45875   1.000
    Br23    Br   0.53077   0.32397   0.45875   1.000
loop_
    _geom_bond_atom_site_label_1
    _geom_bond_atom_site_label_2
    _geom_bond_distance
    _geom_bond_site_symmetry_2
    _ccdc_geom_bond_type
    Zn2    Br15      2.38495      .   S
    Zn1    Br14      2.38495      .   S
    Br12   Zn11      2.39766      .   S
    Br13   Zn0       2.33169      .   S
    Zn3    Br16      2.38490      .   S
    Zn4    Br17      2.38492      .   S
    Br23   Zn10      2.38490      .   S
    Br22   Zn9       2.38491      .   S
    Zn5    Br18      2.38451      .   S
    Zn6    Br19      2.38451      .   S
    Br20   Zn7       2.38500      .   S
    Br21   Zn8       2.38500      .   S
