# CIF file generated by openbabel 2.4.90, see http://openbabel.sf.net
data_I
_chemical_name_common ''
_cell_length_a 20.975
_cell_length_b 18.056
_cell_length_c 18.058
_cell_angle_alpha 120.058
_cell_angle_beta 90.008
_cell_angle_gamma 90.002
_space_group_name_H-M_alt 'P 1'
_space_group_name_Hall 'P 1'
loop_
    _symmetry_equiv_pos_as_xyz
    x,y,z
loop_
    _atom_site_label
    _atom_site_type_symbol
    _atom_site_fract_x
    _atom_site_fract_y
    _atom_site_fract_z
    _atom_site_occupancy
    N0      N    0.45607   0.15698   0.62196   1.000
    N1      N    0.12271   0.46513   0.84301   1.000
    N2      N    0.62271   0.46513   0.84301   1.000
    N3      N    0.28940   0.37801   0.53504   1.000
    N4      N    0.78940   0.37801   0.53500   1.000
    N5      N    0.20610   0.84299   0.37793   1.000
    N6      N    0.70610   0.84299   0.37793   1.000
    N7      N    0.37270   0.53494   0.15702   1.000
    N8      N    0.87271   0.53494   0.15698   1.000
    N9      N    0.95607   0.15698   0.62194   1.000
    N10     N    0.53939   0.62187   0.46492   1.000
    N11     N    0.03939   0.62187   0.46492   1.000
    Zr12    Zr   0.87092   0.49565   0.89460   1.000
    O13     O    0.79802   0.47230   0.88764   1.000
    O14     O    0.89648   0.38339   0.82346   1.000
    Zr15    Zr   0.70428   0.10560   0.60110   1.000
    O16     O    0.72983   0.17663   0.55995   1.000
    O17     O    0.63138   0.11246   0.58463   1.000
    Zr18    Zr   0.45429   0.89436   0.39849   1.000
    O19     O    0.47983   0.82329   0.43982   1.000
    O20     O    0.38139   0.88750   0.41514   1.000
    Zr21    Zr   0.95429   0.89436   0.39650   1.000
    O22     O    0.88139   0.88750   0.41364   1.000
    O23     O    0.97983   0.82330   0.43833   1.000
    Zr24    Zr   0.53756   0.39911   0.50474   1.000
    O25     O    0.56313   0.44028   0.61688   1.000
    O26     O    0.46468   0.41554   0.52800   1.000
    Zr27    Zr   0.03756   0.39911   0.50474   1.000
    O28     O    0.96468   0.41554   0.52799   1.000
    O29     O    0.06313   0.44028   0.61688   1.000
    Zr30    Zr   0.20428   0.10560   0.60110   1.000
    O31     O    0.13138   0.11246   0.58463   1.000
    O32     O    0.22983   0.17663   0.55995   1.000
    Zr33    Zr   0.12092   0.50444   0.10544   1.000
    O34     O    0.04802   0.52778   0.11240   1.000
    O35     O    0.14650   0.61667   0.17653   1.000
    Zr36    Zr   0.62093   0.50444   0.10544   1.000
    O37     O    0.64650   0.61667   0.17653   1.000
    O38     O    0.54803   0.52778   0.11241   1.000
    Zr39    Zr   0.28756   0.60082   0.49528   1.000
    O40     O    0.21467   0.58438   0.47201   1.000
    O41     O    0.31312   0.55969   0.38315   1.000
    Zr42    Zr   0.78756   0.60082   0.49528   1.000
    O43     O    0.81312   0.55970   0.38314   1.000
    O44     O    0.71467   0.58438   0.47201   1.000
    Zr45    Zr   0.37091   0.49565   0.89460   1.000
    O46     O    0.29802   0.47229   0.88764   1.000
    O47     O    0.39648   0.38339   0.82347   1.000
    O48     O    0.79551   0.51974   0.49814   1.000
    O49     O    0.54551   0.48018   0.50186   1.000
    O50     O    0.62885   0.50173   0.02157   1.000
    O51     O    0.87884   0.49835   0.97847   1.000
    O52     O    0.96221   0.97832   0.47836   1.000
    O53     O    0.21221   0.02165   0.51991   1.000
    O54     O    0.04551   0.48019   0.50186   1.000
    O55     O    0.29551   0.51973   0.49814   1.000
    O56     O    0.12885   0.50173   0.02157   1.000
    O57     O    0.37884   0.49834   0.97847   1.000
    O58     O    0.71221   0.02165   0.51991   1.000
    O59     O    0.46221   0.97832   0.47986   1.000
loop_
    _geom_bond_atom_site_label_1
    _geom_bond_atom_site_label_2
    _geom_bond_distance
    _geom_bond_site_symmetry_2
    _ccdc_geom_bond_type
    Zr12   O13       1.57428      .   S
    N2     O13       3.75257      .   S
    Zr12   O14       1.85420      .   S
    N9     O14       4.07629      .   S
    Zr15   O16       1.85467      .   S
    N4     O16       4.07750      .   S
    Zr15   O17       1.57442      .   S
    N0     O17       3.75223      .   S
    Zr18   O19       1.85736      .   S
    N10    O19       4.07980      .   S
    Zr18   O20       1.57511      .   S
    N5     O20       3.75148      .   S
    Zr21   O22       1.57722      .   S
    N6     O22       3.74965      .   S
    Zr21   O23       1.86409      .   S
    N11    O23       4.09486  1_455   S
    Zr24   O25       1.85266      .   S
    N2     O25       4.07431      .   S
    Zr24   O26       1.57379      .   S
    N3     O26       3.75210      .   S
    Zr27   O28       1.57371  1_455   S
    N4     O28       3.75196      .   S
    Zr27   O29       1.85265      .   S
    N1     O29       4.07443      .   S
    Zr30   O31       1.57442      .   S
    N9     O31       3.75217  1_655   S
    Zr30   O32       1.85454      .   S
    N3     O32       4.07722      .   S
    Zr33   O34       1.57432      .   S
    N8     O34       3.75290  1_655   S
    Zr33   O35       1.85361      .   S
    N5     O35       4.07429      .   S
    Zr36   O37       1.85361      .   S
    N6     O37       4.07428      .   S
    Zr36   O38       1.57434      .   S
    N7     O38       3.75307      .   S
    Zr39   O40       1.57379      .   S
    N11    O40       3.75207      .   S
    Zr39   O41       1.85292      .   S
    N7     O41       4.07549      .   S
    Zr42   O43       1.85305      .   S
    N8     O43       4.07589      .   S
    Zr42   O44       1.57380      .   S
    N10    O44       3.75209      .   S
    Zr45   O46       1.57427      .   S
    N1     O46       3.75254      .   S
    Zr45   O47       1.85419      .   S
    N0     O47       4.07623      .   S
    Zr42   O48       1.49989      .   S
    N4     O48       2.95204      .   S
    Zr24   O49       1.49986      .   S
    N10    O49       2.95228      .   S
    Zr36   O50       1.50010      .   S
    N2     O50       2.95222  1_556   S
    N8     O51       2.95157  1_554   S
    Zr12   O51       1.49976      .   S
    Zr21   O52       1.50532      .   S
    N9     O52       2.96094  1_545   S
    Zr30   O53       1.49965      .   S
    N5     O53       2.95131  1_565   S
    Zr27   O54       1.49987      .   S
    N11    O54       2.95231      .   S
    Zr39   O55       1.49998      .   S
    N3     O55       2.95235      .   S
    Zr33   O56       1.50008      .   S
    N1     O56       2.95215  1_556   S
    N7     O57       2.95199  1_554   S
    Zr45   O57       1.49990      .   S
    N6     O58       2.95131  1_565   S
    Zr15   O58       1.49965      .   S
    Zr18   O59       1.50105      .   S
    N0     O59       2.95220  1_545   S
