# CIF file generated by openbabel 2.4.90, see http://openbabel.sf.net
data_I
_chemical_name_common ''
_cell_length_a 20.975
_cell_length_b 18.056
_cell_length_c 18.058
_cell_angle_alpha 120.058
_cell_angle_beta 90.008
_cell_angle_gamma 90.002
_space_group_name_H-M_alt 'P 1'
_space_group_name_Hall 'P 1'
loop_
    _symmetry_equiv_pos_as_xyz
    x,y,z
loop_
    _atom_site_label
    _atom_site_type_symbol
    _atom_site_fract_x
    _atom_site_fract_y
    _atom_site_fract_z
    _atom_site_occupancy
    Zr0     Zr   0.46103   0.92342   0.47399   1.000
    Zr1     Zr   0.96103   0.92342   0.47000   1.000
    Zr2     Zr   0.12769   0.55051   0.07647   1.000
    Zr3     Zr   0.62769   0.55051   0.07647   1.000
    Zr4     Zr   0.29434   0.52569   0.44929   1.000
    Zr5     Zr   0.79435   0.52569   0.44929   1.000
    Zr6     Zr   0.21102   0.07653   0.52601   1.000
    Zr7     Zr   0.71102   0.07653   0.52601   1.000
    Zr8     Zr   0.37767   0.44956   0.92357   1.000
    Zr9     Zr   0.87767   0.44956   0.92357   1.000
    Zr10    Zr   0.04435   0.47425   0.55074   1.000
    Zr11    Zr   0.54436   0.47425   0.55074   1.000
    Zr12    Zr   0.44755   0.86529   0.32300   1.000
    Zr13    Zr   0.94755   0.86529   0.32300   1.000
    Zr14    Zr   0.11416   0.45836   0.13442   1.000
    Zr15    Zr   0.61416   0.45836   0.13442   1.000
    Zr16    Zr   0.28077   0.67596   0.54128   1.000
    Zr17    Zr   0.78078   0.67596   0.54128   1.000
    Zr18    Zr   0.19753   0.13467   0.67620   1.000
    Zr19    Zr   0.69754   0.13466   0.67620   1.000
    Zr20    Zr   0.36416   0.54173   0.86564   1.000
    Zr21    Zr   0.86416   0.54173   0.86564   1.000
    Zr22    Zr   0.03077   0.32397   0.45875   1.000
    Zr23    Zr   0.53077   0.32397   0.45875   1.000
    O24     O    0.62093   0.50444   0.10544   1.000
    O25     O    0.12092   0.50444   0.10544   1.000
    O26     O    0.45429   0.89436   0.39849   1.000
    O27     O    0.95429   0.89436   0.39650   1.000
    O28     O    0.28756   0.60082   0.49528   1.000
    O29     O    0.78756   0.60082   0.49528   1.000
    O30     O    0.53756   0.39911   0.50474   1.000
    O31     O    0.03756   0.39911   0.50474   1.000
    O32     O    0.20428   0.10560   0.60110   1.000
    O33     O    0.70428   0.10560   0.60110   1.000
    O34     O    0.37091   0.49565   0.89460   1.000
    O35     O    0.87092   0.49565   0.89460   1.000
    N36     N    0.45607   0.15698   0.62196   1.000
    O37     O    0.42204   0.27113   0.75233   1.000
    O38     O    0.45662   0.07302   0.57117   1.000
    O39     O    0.48365   0.05153   0.55128   1.000
    O40     O    0.55848   0.11932   0.56816   1.000
    N41     N    0.12271   0.46513   0.84301   1.000
    O42     O    0.08869   0.48145   0.72902   1.000
    O43     O    0.12326   0.49824   0.92694   1.000
    O44     O    0.15029   0.49981   0.94843   1.000
    O45     O    0.22512   0.44894   0.88067   1.000
    N46     N    0.62271   0.46513   0.84301   1.000
    O47     O    0.58870   0.48145   0.72902   1.000
    O48     O    0.62327   0.49824   0.92694   1.000
    O49     O    0.65029   0.49981   0.94843   1.000
    O50     O    0.72512   0.44894   0.88067   1.000
    N51     N    0.28940   0.37801   0.53504   1.000
    O52     O    0.25537   0.24767   0.51880   1.000
    O53     O    0.28994   0.42870   0.50181   1.000
    O54     O    0.31696   0.44859   0.50020   1.000
    O55     O    0.39180   0.43197   0.55126   1.000
    N56     N    0.78940   0.37801   0.53500   1.000
    O57     O    0.75538   0.24767   0.51879   1.000
    O58     O    0.78995   0.42870   0.50179   1.000
    O59     O    0.81696   0.44859   0.50018   1.000
    O60     O    0.89180   0.43197   0.55124   1.000
    N61     N    0.20610   0.84299   0.37793   1.000
    O62     O    0.17207   0.72890   0.24761   1.000
    O63     O    0.20663   0.92695   0.42876   1.000
    O64     O    0.30849   0.88064   0.43178   1.000
    O65     O    0.23366   0.94844   0.44866   1.000
    N66     N    0.70610   0.84299   0.37793   1.000
    O67     O    0.67207   0.72890   0.24761   1.000
    O68     O    0.70664   0.92695   0.42876   1.000
    O69     O    0.80849   0.88064   0.43078   1.000
    O70     O    0.73366   0.94844   0.44866   1.000
    N71     N    0.37270   0.53494   0.15702   1.000
    O72     O    0.33868   0.51856   0.27101   1.000
    O73     O    0.37326   0.50183   0.07308   1.000
    O74     O    0.40028   0.50026   0.05161   1.000
    O75     O    0.47513   0.55113   0.11937   1.000
    N76     N    0.87271   0.53494   0.15698   1.000
    O77     O    0.83868   0.51857   0.27099   1.000
    O78     O    0.87326   0.50183   0.07306   1.000
    O79     O    0.90028   0.50026   0.05159   1.000
    O80     O    0.97513   0.55113   0.11935   1.000
    N81     N    0.95607   0.15698   0.62194   1.000
    O82     O    0.92204   0.27113   0.75232   1.000
    O83     O    0.95662   0.07302   0.57017   1.000
    O84     O    0.98365   0.05153   0.55028   1.000
    O85     O    0.05848   0.11932   0.56815   1.000
    N86     N    0.53939   0.62187   0.46492   1.000
    O87     O    0.56696   0.55132   0.49980   1.000
    O88     O    0.64179   0.56793   0.44873   1.000
    O89     O    0.50537   0.75223   0.48115   1.000
    O90     O    0.53995   0.57120   0.49817   1.000
    N91     N    0.03939   0.62187   0.46492   1.000
    O92     O    0.06696   0.55132   0.49980   1.000
    O93     O    0.14179   0.56793   0.44873   1.000
    O94     O    0.00537   0.75223   0.48016   1.000
    O95     O    0.03994   0.57120   0.49817   1.000
loop_
    _geom_bond_atom_site_label_1
    _geom_bond_atom_site_label_2
    _geom_bond_distance
    _geom_bond_site_symmetry_2
    _ccdc_geom_bond_type
    Zr3    O24       1.19247      .   S
    Zr15   O24       1.19247      .   S
    Zr2    O25       1.19247      .   S
    Zr14   O25       1.19247      .   S
    Zr12   O26       1.19883      .   S
    Zr0    O26       1.19883      .   S
    Zr13   O27       1.16584      .   S
    Zr1    O27       1.16584      .   S
    Zr4    O28       1.19245      .   S
    Zr16   O28       1.19245      .   S
    Zr5    O29       1.19246      .   S
    Zr17   O29       1.19246      .   S
    Zr23   O30       1.19245      .   S
    Zr11   O30       1.19245      .   S
    Zr22   O31       1.19245      .   S
    Zr10   O31       1.19245      .   S
    Zr6    O32       1.19225      .   S
    Zr18   O32       1.19225      .   S
    Zr7    O33       1.19226      .   S
    Zr19   O33       1.19226      .   S
    Zr20   O34       1.19250      .   S
    Zr8    O34       1.19250      .   S
    Zr21   O35       1.19250      .   S
    Zr9    O35       1.19250      .   S
    N36    O37       2.33238      .   S
    Zr8    O37       3.29072      .   S
    N36    O38       1.32160      .   S
    Zr0    O38       2.37399  1_565   S
    N36    O39       1.77617      .   S
    Zr0    O39       2.07098  1_565   S
    N36    O40       2.31488      .   S
    Zr7    O40       3.29029      .   S
    N41    O42       2.33253      .   S
    Zr10   O42       3.29023      .   S
    N41    O43       1.32176      .   S
    Zr2    O43       2.37430  1_554   S
    N41    O44       1.77659      .   S
    Zr2    O44       2.07087  1_554   S
    N41    O45       2.31531      .   S
    Zr8    O45       3.29082      .   S
    N46    O47       2.33239      .   S
    Zr11   O47       3.29026      .   S
    N46    O48       1.32180      .   S
    Zr3    O48       2.37435  1_554   S
    N46    O49       1.77663      .   S
    Zr3    O49       2.07091  1_554   S
    N46    O50       2.31533      .   S
    Zr9    O50       3.29084      .   S
    N51    O52       2.33298      .   S
    Zr6    O52       3.29146      .   S
    N51    O53       1.32209      .   S
    Zr4    O53       2.37455      .   S
    N51    O54       1.77689      .   S
    Zr4    O54       2.07117      .   S
    N51    O55       2.31556      .   S
    Zr11   O55       3.29080      .   S
    N56    O57       2.33310      .   S
    Zr7    O57       3.29163      .   S
    N56    O58       1.32184      .   S
    Zr5    O58       2.37430      .   S
    N56    O59       1.77667      .   S
    Zr5    O59       2.07091      .   S
    N56    O60       2.31551      .   S
    Zr10   O60       3.29067  1_455   S
    N61    O62       2.33118      .   S
    Zr2    O62       3.28929      .   S
    N61    O63       1.32162      .   S
    Zr6    O63       2.37394  1_545   S
    N61    O64       2.31458      .   S
    Zr0    O64       3.28988      .   S
    N61    O65       1.77599      .   S
    Zr6    O65       2.07111  1_545   S
    N66    O67       2.33117      .   S
    Zr3    O67       3.28929      .   S
    N66    O68       1.32162      .   S
    Zr7    O68       2.37395  1_545   S
    N66    O69       2.30973      .   S
    Zr1    O69       3.28417      .   S
    N66    O70       1.77599      .   S
    Zr7    O70       2.07112  1_545   S
    N71    O72       2.33329      .   S
    Zr4    O72       3.29116      .   S
    N71    O73       1.32190      .   S
    Zr8    O73       2.37395  1_556   S
    N71    O74       1.77652      .   S
    Zr8    O74       2.07077  1_556   S
    N71    O75       2.31569      .   S
    Zr3    O75       3.29132      .   S
    N76    O77       2.33356      .   S
    Zr5    O77       3.29144      .   S
    N76    O78       1.32164      .   S
    Zr9    O78       2.37368  1_556   S
    N76    O79       1.77627      .   S
    Zr9    O79       2.07051  1_556   S
    N76    O80       2.31553      .   S
    Zr2    O80       3.29119  1_455   S
    N81    O82       2.33245      .   S
    Zr9    O82       3.29077      .   S
    N81    O83       1.32386      .   S
    Zr1    O83       2.38371  1_565   S
    N81    O84       1.77948      .   S
    Zr1    O84       2.07785  1_565   S
    N81    O85       2.31481  1_655   S
    Zr6    O85       3.29024      .   S
    N86    O87       1.77695      .   S
    Zr11   O87       2.07117      .   S
    N86    O88       2.31556      .   S
    Zr5    O88       3.29076      .   S
    N86    O89       2.33333      .   S
    Zr0    O89       3.29204      .   S
    N86    O90       1.32215      .   S
    Zr11   O90       2.37455      .   S
    N91    O92       1.77697      .   S
    Zr10   O92       2.07118      .   S
    N91    O93       2.31555      .   S
    Zr4    O93       3.29075      .   S
    N91    O94       2.34019      .   S
    Zr1    O94       3.31988  1_655   S
    N91    O95       1.32217      .   S
    Zr10   O95       2.37457      .   S
