# CIF file generated by openbabel 2.4.90, see http://openbabel.sf.net
data_I
_chemical_name_common ''
_cell_length_a 20.975
_cell_length_b 18.056
_cell_length_c 18.058
_cell_angle_alpha 120.058
_cell_angle_beta 90.008
_cell_angle_gamma 90.002
_space_group_name_H-M_alt 'P 1'
_space_group_name_Hall 'P 1'
loop_
    _symmetry_equiv_pos_as_xyz
    x,y,z
loop_
    _atom_site_label
    _atom_site_type_symbol
    _atom_site_fract_x
    _atom_site_fract_y
    _atom_site_fract_z
    _atom_site_occupancy
    C0      C    0.46103   0.92342   0.47399   1.000
    C1      C    0.96103   0.92342   0.47000   1.000
    C2      C    0.12769   0.55051   0.07647   1.000
    C3      C    0.62769   0.55051   0.07647   1.000
    C4      C    0.29434   0.52569   0.44929   1.000
    C5      C    0.79435   0.52569   0.44929   1.000
    C6      C    0.21102   0.07653   0.52601   1.000
    C7      C    0.71102   0.07653   0.52601   1.000
    C8      C    0.37767   0.44956   0.92357   1.000
    C9      C    0.87767   0.44956   0.92357   1.000
    C10     C    0.04435   0.47425   0.55074   1.000
    C11     C    0.54436   0.47425   0.55074   1.000
    C12     C    0.40992   0.07114   0.55200   1.000
    C13     C    0.90992   0.07114   0.55200   1.000
    C14     C    0.30687   0.29425   0.79112   1.000
    C15     C    0.80687   0.29425   0.79112   1.000
    C16     C    0.49096   0.33504   0.88619   1.000
    C17     C    0.99097   0.33504   0.88619   1.000
    C18     C    0.02284   0.18468   0.78187   1.000
    C19     C    0.52285   0.18467   0.78187   1.000
    C20     C    0.33016   0.14313   0.68278   1.000
    C21     C    0.83016   0.14313   0.68270   1.000
    C22     C    0.49197   0.04135   0.66725   1.000
    C23     C    0.99197   0.04135   0.66725   1.000
    C24     C    0.40941   0.01634   0.64611   1.000
    C25     C    0.90941   0.01634   0.64611   1.000
    C26     C    0.02481   0.14984   0.62550   1.000
    C27     C    0.52481   0.14984   0.62551   1.000
    C28     C    0.03004   0.19572   0.52273   1.000
    C29     C    0.53004   0.19572   0.52273   1.000
    C30     C    0.42150   0.07073   0.42243   1.000
    C31     C    0.92150   0.07073   0.42240   1.000
    C32     C    0.00129   0.06328   0.38899   1.000
    C33     C    0.50129   0.06328   0.38899   1.000
    C34     C    0.45417   0.15103   0.40347   1.000
    C35     C    0.95417   0.15103   0.40347   1.000
    C36     C    0.43045   0.27449   0.55394   1.000
    C37     C    0.93046   0.27449   0.55394   1.000
    C38     C    0.45450   0.26867   0.64490   1.000
    C39     C    0.95450   0.26866   0.64499   1.000
    C40     C    0.39103   0.20333   0.58001   1.000
    C41     C    0.89103   0.20333   0.58001   1.000
    C42     C    0.07655   0.48092   0.92876   1.000
    C43     C    0.57656   0.48092   0.92876   1.000
    C44     C    0.47352   0.49718   0.70581   1.000
    C45     C    0.97352   0.49719   0.70582   1.000
    C46     C    0.15765   0.55170   0.66554   1.000
    C47     C    0.65766   0.55171   0.66550   1.000
    C48     C    0.18942   0.59766   0.81586   1.000
    C49     C    0.68942   0.59767   0.81587   1.000
    C50     C    0.99670   0.53985   0.85686   1.000
    C51     C    0.49670   0.53985   0.85686   1.000
    C52     C    0.15843   0.62626   0.95901   1.000
    C53     C    0.65843   0.62626   0.95901   1.000
    C54     C    0.07587   0.62988   0.98383   1.000
    C55     C    0.57587   0.62988   0.98383   1.000
    C56     C    0.19147   0.47590   0.85026   1.000
    C57     C    0.69147   0.47590   0.85026   1.000
    C58     C    0.19675   0.32706   0.80400   1.000
    C59     C    0.69675   0.32706   0.80400   1.000
    C60     C    0.08816   0.35156   0.92878   1.000
    C61     C    0.58817   0.35156   0.92878   1.000
    C62     C    0.16797   0.32562   0.93627   1.000
    C63     C    0.66797   0.32562   0.93627   1.000
    C64     C    0.12091   0.25227   0.84838   1.000
    C65     C    0.62091   0.25227   0.84830   1.000
    C66     C    0.09723   0.27939   0.72510   1.000
    C67     C    0.59723   0.27939   0.72513   1.000
    C68     C    0.12123   0.37643   0.73123   1.000
    C69     C    0.62123   0.37643   0.73123   1.000
    C70     C    0.05772   0.37664   0.79637   1.000
    C71     C    0.55773   0.37663   0.79637   1.000
    C72     C    0.24325   0.44793   0.51913   1.000
    C73     C    0.74325   0.44793   0.51913   1.000
    C74     C    0.14022   0.20886   0.50327   1.000
    C75     C    0.64022   0.20886   0.50328   1.000
    C76     C    0.32429   0.11377   0.44864   1.000
    C77     C    0.82429   0.11377   0.44864   1.000
    C78     C    0.35607   0.21796   0.40258   1.000
    C79     C    0.85607   0.21797   0.40258   1.000
    C80     C    0.16341   0.31707   0.46048   1.000
    C81     C    0.66341   0.31707   0.46048   1.000
    C82     C    0.32514   0.33242   0.37390   1.000
    C83     C    0.82514   0.33242   0.37394   1.000
    C84     C    0.24257   0.35358   0.37020   1.000
    C85     C    0.74258   0.35358   0.37020   1.000
    C86     C    0.35822   0.37456   0.52425   1.000
    C87     C    0.85823   0.37456   0.52425   1.000
    C88     C    0.36348   0.47749   0.67306   1.000
    C89     C    0.86348   0.47750   0.67306   1.000
    C90     C    0.25479   0.57752   0.64847   1.000
    C91     C    0.75479   0.57752   0.64847   1.000
    C92     C    0.33456   0.61114   0.67455   1.000
    C93     C    0.83456   0.61114   0.67455   1.000
    C94     C    0.28749   0.59661   0.74779   1.000
    C95     C    0.78749   0.59661   0.74779   1.000
    C96     C    0.26407   0.44610   0.72068   1.000
    C97     C    0.76407   0.44610   0.72069   1.000
    C98     C    0.28804   0.35507   0.62359   1.000
    C99     C    0.78805   0.35507   0.62360   1.000
    C100    C    0.22448   0.41998   0.62349   1.000
    C101    C    0.72448   0.41999   0.62300   1.000
    C102    C    0.15991   0.92880   0.44780   1.000
    C103    C    0.65992   0.92880   0.44784   1.000
    C104    C    0.05697   0.70570   0.20892   1.000
    C105    C    0.55697   0.70570   0.20892   1.000
    C106    C    0.24098   0.66518   0.11367   1.000
    C107    C    0.74099   0.66518   0.11367   1.000
    C108    C    0.27281   0.81560   0.21797   1.000
    C109    C    0.77282   0.81560   0.21797   1.000
    C110    C    0.08021   0.85686   0.31723   1.000
    C111    C    0.58022   0.85686   0.31723   1.000
    C112    C    0.24198   0.95879   0.33282   1.000
    C113    C    0.74199   0.95879   0.33282   1.000
    C114    C    0.15942   0.98377   0.35393   1.000
    C115    C    0.65942   0.98377   0.35393   1.000
    C116    C    0.27481   0.85016   0.37438   1.000
    C117    C    0.77481   0.85016   0.37438   1.000
    C118    C    0.28010   0.80428   0.47720   1.000
    C119    C    0.78010   0.80427   0.47719   1.000
    C120    C    0.17141   0.92900   0.57727   1.000
    C121    C    0.67141   0.92900   0.57727   1.000
    C122    C    0.25117   0.93664   0.61088   1.000
    C123    C    0.75118   0.93664   0.61087   1.000
    C124    C    0.20414   0.84877   0.59630   1.000
    C125    C    0.70414   0.84877   0.59630   1.000
    C126    C    0.18064   0.72522   0.44575   1.000
    C127    C    0.68064   0.72522   0.44575   1.000
    C128    C    0.20470   0.73115   0.35477   1.000
    C129    C    0.70470   0.73115   0.35477   1.000
    C130    C    0.14112   0.79628   0.41962   1.000
    C131    C    0.64112   0.79628   0.41961   1.000
    C132    C    0.32657   0.51914   0.07127   1.000
    C133    C    0.82657   0.51914   0.07127   1.000
    C134    C    0.22348   0.50278   0.29410   1.000
    C135    C    0.72348   0.50278   0.29410   1.000
    C136    C    0.40759   0.44829   0.33455   1.000
    C137    C    0.90760   0.44829   0.33455   1.000
    C138    C    0.43940   0.40245   0.18429   1.000
    C139    C    0.93941   0.40245   0.18429   1.000
    C140    C    0.24670   0.46023   0.14317   1.000
    C141    C    0.74670   0.46023   0.14317   1.000
    C142    C    0.40845   0.37386   0.04114   1.000
    C143    C    0.90845   0.37386   0.04114   1.000
    C144    C    0.32589   0.37018   0.01624   1.000
    C145    C    0.82590   0.37018   0.01624   1.000
    C146    C    0.44149   0.52424   0.14980   1.000
    C147    C    0.94150   0.52424   0.14980   1.000
    C148    C    0.44674   0.67307   0.19600   1.000
    C149    C    0.94674   0.67307   0.19600   1.000
    C150    C    0.33823   0.64850   0.07114   1.000
    C151    C    0.83823   0.64850   0.07110   1.000
    C152    C    0.41803   0.67454   0.06380   1.000
    C153    C    0.91804   0.67454   0.06380   1.000
    C154    C    0.37091   0.74782   0.15162   1.000
    C155    C    0.87092   0.74782   0.15162   1.000
    C156    C    0.34717   0.72064   0.27481   1.000
    C157    C    0.84717   0.72064   0.27481   1.000
    C158    C    0.37113   0.62359   0.26869   1.000
    C159    C    0.87113   0.62359   0.26869   1.000
    C160    C    0.30769   0.62340   0.20347   1.000
    C161    C    0.80769   0.62340   0.20340   1.000
    C162    C    0.49325   0.55194   0.48084   1.000
    C163    C    0.99326   0.55194   0.48084   1.000
    C164    C    0.39017   0.79116   0.49685   1.000
    C165    C    0.89017   0.79117   0.49680   1.000
    C166    C    0.07434   0.88597   0.55106   1.000
    C167    C    0.57434   0.88597   0.55106   1.000
    C168    C    0.10614   0.78176   0.59710   1.000
    C169    C    0.60614   0.78176   0.59710   1.000
    C170    C    0.41337   0.68294   0.53962   1.000
    C171    C    0.91338   0.68294   0.53963   1.000
    C172    C    0.07512   0.66751   0.62600   1.000
    C173    C    0.57512   0.66751   0.62607   1.000
    C174    C    0.49255   0.64633   0.62973   1.000
    C175    C    0.99256   0.64633   0.62970   1.000
    C176    C    0.10822   0.62534   0.47575   1.000
    C177    C    0.60822   0.62534   0.47575   1.000
    C178    C    0.11344   0.52246   0.32696   1.000
    C179    C    0.61345   0.52245   0.32695   1.000
    C180    C    0.00483   0.42229   0.35150   1.000
    C181    C    0.50483   0.42229   0.35150   1.000
    C182    C    0.08461   0.38877   0.32546   1.000
    C183    C    0.58462   0.38877   0.32546   1.000
    C184    C    0.03751   0.40325   0.25219   1.000
    C185    C    0.53751   0.40324   0.25219   1.000
    C186    C    0.01394   0.55372   0.27932   1.000
    C187    C    0.51395   0.55372   0.27932   1.000
    C188    C    0.03795   0.64479   0.37639   1.000
    C189    C    0.53795   0.64479   0.37630   1.000
    C190    C    0.47443   0.57983   0.37654   1.000
    C191    C    0.97444   0.57983   0.37650   1.000
    C192    C    0.35416   0.26735   0.78601   1.000
    C193    C    0.85417   0.26735   0.78601   1.000
    C194    C    0.45727   0.28993   0.83971   1.000
    C195    C    0.95727   0.28993   0.83971   1.000
    C196    C    0.47436   0.20611   0.78124   1.000
    C197    C    0.97436   0.20611   0.78124   1.000
    C198    C    0.42948   0.15105   0.72180   1.000
    C199    C    0.92948   0.15105   0.72180   1.000
    C200    C    0.36793   0.18295   0.72601   1.000
    C201    C    0.86793   0.18295   0.72601   1.000
    C202    C    0.44676   0.06182   0.65237   1.000
    C203    C    0.94677   0.06182   0.65237   1.000
    C204    C    0.06374   0.04863   0.51256   1.000
    C205    C    0.56375   0.04863   0.51256   1.000
    C206    C    0.00641   0.10601   0.56072   1.000
    C207    C    0.50641   0.10601   0.56072   1.000
    C208    C    0.48628   0.16207   0.52246   1.000
    C209    C    0.98629   0.16207   0.52246   1.000
    C210    C    0.46438   0.10874   0.42939   1.000
    C211    C    0.96438   0.10874   0.42900   1.000
    C212    C    0.43765   0.23051   0.57861   1.000
    C213    C    0.93765   0.23051   0.57861   1.000
    C214    C    0.02080   0.51900   0.73282   1.000
    C215    C    0.52080   0.51899   0.73280   1.000
    C216    C    0.12392   0.55024   0.71052   1.000
    C217    C    0.62392   0.55024   0.71052   1.000
    C218    C    0.14095   0.57554   0.79431   1.000
    C219    C    0.64096   0.57554   0.79431   1.000
    C220    C    0.09604   0.57102   0.84920   1.000
    C221    C    0.59604   0.57102   0.84920   1.000
    C222    C    0.03451   0.54333   0.81718   1.000
    C223    C    0.53451   0.54332   0.81710   1.000
    C224    C    0.11329   0.59075   0.93838   1.000
    C225    C    0.61329   0.59075   0.93838   1.000
    C226    C    0.23039   0.46399   0.95130   1.000
    C227    C    0.73039   0.46399   0.95130   1.000
    C228    C    0.17306   0.45482   0.89393   1.000
    C229    C    0.67307   0.45483   0.89393   1.000
    C230    C    0.15297   0.36040   0.83768   1.000
    C231    C    0.65297   0.36040   0.83768   1.000
    C232    C    0.13107   0.32055   0.89081   1.000
    C233    C    0.63107   0.32055   0.89081   1.000
    C234    C    0.10437   0.34811   0.76922   1.000
    C235    C    0.60437   0.34811   0.76922   1.000
    C236    C    0.18749   0.21394   0.48141   1.000
    C237    C    0.68749   0.21394   0.48141   1.000
    C238    C    0.29057   0.16023   0.45010   1.000
    C239    C    0.79057   0.16023   0.45011   1.000
    C240    C    0.30761   0.21864   0.42475   1.000
    C241    C    0.80762   0.21864   0.42475   1.000
    C242    C    0.26272   0.27808   0.42925   1.000
    C243    C    0.76273   0.27808   0.42925   1.000
    C244    C    0.20120   0.27388   0.45701   1.000
    C245    C    0.70121   0.27388   0.45701   1.000
    C246    C    0.27998   0.34741   0.40940   1.000
    C247    C    0.77998   0.34741   0.40941   1.000
    C248    C    0.39705   0.48754   0.53609   1.000
    C249    C    0.89705   0.48754   0.53609   1.000
    C250    C    0.33977   0.43932   0.54529   1.000
    C251    C    0.83977   0.43932   0.54529   1.000
    C252    C    0.31968   0.47764   0.63969   1.000
    C253    C    0.81968   0.47765   0.63900   1.000
    C254    C    0.29769   0.57067   0.67953   1.000
    C255    C    0.79769   0.57067   0.67953   1.000
    C256    C    0.27115   0.42143   0.65190   1.000
    C257    C    0.77115   0.42143   0.65198   1.000
    C258    C    0.10424   0.73268   0.21399   1.000
    C259    C    0.60424   0.73268   0.21399   1.000
    C260    C    0.20729   0.71024   0.16019   1.000
    C261    C    0.70729   0.71024   0.16019   1.000
    C262    C    0.22436   0.79409   0.21865   1.000
    C263    C    0.72436   0.79409   0.21864   1.000
    C264    C    0.17949   0.84906   0.27815   1.000
    C265    C    0.67949   0.84907   0.27815   1.000
    C266    C    0.11797   0.81710   0.27397   1.000
    C267    C    0.61797   0.81710   0.27397   1.000
    C268    C    0.19678   0.93828   0.34764   1.000
    C269    C    0.69678   0.93828   0.34764   1.000
    C270    C    0.31376   0.95133   0.48739   1.000
    C271    C    0.81376   0.95133   0.48739   1.000
    C272    C    0.25642   0.89394   0.43918   1.000
    C273    C    0.75642   0.89394   0.43918   1.000
    C274    C    0.23631   0.83782   0.47738   1.000
    C275    C    0.73631   0.83782   0.47737   1.000
    C276    C    0.21432   0.89109   0.57040   1.000
    C277    C    0.71432   0.89108   0.57039   1.000
    C278    C    0.18778   0.76924   0.42111   1.000
    C279    C    0.68778   0.76924   0.42110   1.000
    C280    C    0.27076   0.48101   0.26720   1.000
    C281    C    0.77077   0.48101   0.26720   1.000
    C282    C    0.37387   0.44978   0.28956   1.000
    C283    C    0.87387   0.44978   0.28956   1.000
    C284    C    0.39093   0.42454   0.20580   1.000
    C285    C    0.89093   0.42455   0.20580   1.000
    C286    C    0.34603   0.42908   0.15089   1.000
    C287    C    0.84604   0.42908   0.15089   1.000
    C288    C    0.28449   0.45674   0.18287   1.000
    C289    C    0.78450   0.45674   0.18287   1.000
    C290    C    0.36330   0.40935   0.06171   1.000
    C291    C    0.86330   0.40935   0.06171   1.000
    C292    C    0.48040   0.53611   0.04876   1.000
    C293    C    0.98040   0.53611   0.04876   1.000
    C294    C    0.42308   0.54528   0.10612   1.000
    C295    C    0.92308   0.54528   0.10612   1.000
    C296    C    0.40298   0.63969   0.16234   1.000
    C297    C    0.90298   0.63969   0.16230   1.000
    C298    C    0.38110   0.67954   0.10919   1.000
    C299    C    0.88110   0.67955   0.10910   1.000
    C300    C    0.35432   0.65193   0.23070   1.000
    C301    C    0.85433   0.65193   0.23000   1.000
    C302    C    0.43746   0.78602   0.51862   1.000
    C303    C    0.93747   0.78602   0.51863   1.000
    C304    C    0.04061   0.83957   0.54969   1.000
    C305    C    0.54061   0.83957   0.54969   1.000
    C306    C    0.05765   0.78115   0.57504   1.000
    C307    C    0.55766   0.78115   0.57504   1.000
    C308    C    0.01273   0.72181   0.57068   1.000
    C309    C    0.51273   0.72181   0.57067   1.000
    C310    C    0.45118   0.72608   0.54301   1.000
    C311    C    0.95119   0.72608   0.54302   1.000
    C312    C    0.02997   0.65250   0.59056   1.000
    C313    C    0.52997   0.65250   0.59056   1.000
    C314    C    0.14705   0.51237   0.46392   1.000
    C315    C    0.64705   0.51237   0.46392   1.000
    C316    C    0.08976   0.56058   0.45471   1.000
    C317    C    0.58976   0.56058   0.45471   1.000
    C318    C    0.06966   0.52225   0.36030   1.000
    C319    C    0.56966   0.52225   0.36030   1.000
    C320    C    0.04772   0.42920   0.32046   1.000
    C321    C    0.54772   0.42919   0.32046   1.000
    C322    C    0.02107   0.57842   0.34803   1.000
    C323    C    0.52108   0.57842   0.34803   1.000
    C324    C    0.44755   0.86529   0.32300   1.000
    C325    C    0.94755   0.86529   0.32300   1.000
    C326    C    0.11416   0.45836   0.13442   1.000
    C327    C    0.61416   0.45836   0.13442   1.000
    C328    C    0.28077   0.67596   0.54128   1.000
    C329    C    0.78078   0.67596   0.54128   1.000
    C330    C    0.19753   0.13467   0.67620   1.000
    C331    C    0.69754   0.13466   0.67620   1.000
    C332    C    0.36416   0.54173   0.86564   1.000
    C333    C    0.86416   0.54173   0.86564   1.000
    C334    C    0.03077   0.32397   0.45875   1.000
    C335    C    0.53077   0.32397   0.45875   1.000
    C336    C    0.39834   0.32100   0.84184   1.000
    C337    C    0.89834   0.32100   0.84184   1.000
    C338    C    0.45332   0.05470   0.56679   1.000
    C339    C    0.95332   0.05470   0.56679   1.000
    C340    C    0.06500   0.52129   0.67930   1.000
    C341    C    0.56500   0.52129   0.67932   1.000
    C342    C    0.11994   0.51218   0.94528   1.000
    C343    C    0.61994   0.51218   0.94528   1.000
    C344    C    0.23167   0.15812   0.47913   1.000
    C345    C    0.73167   0.15813   0.47913   1.000
    C346    C    0.28663   0.43309   0.48788   1.000
    C347    C    0.78664   0.43309   0.48788   1.000
    C348    C    0.14839   0.67910   0.15811   1.000
    C349    C    0.64840   0.67910   0.15811   1.000
    C350    C    0.20332   0.94528   0.43316   1.000
    C351    C    0.70333   0.94528   0.43316   1.000
    C352    C    0.31495   0.47870   0.32072   1.000
    C353    C    0.81496   0.47870   0.32072   1.000
    C354    C    0.36995   0.48789   0.05470   1.000
    C355    C    0.86996   0.48789   0.05470   1.000
    C356    C    0.48167   0.84176   0.52079   1.000
    C357    C    0.98168   0.84176   0.52080   1.000
    C358    C    0.03664   0.56681   0.51211   1.000
    C359    C    0.53664   0.56681   0.51211   1.000
    C360    C    0.06141   0.96873   0.48723   1.000
    C361    C    0.56141   0.96873   0.48720   1.000
    C362    C    0.11074   0.08680   0.50272   1.000
    C363    C    0.61074   0.08680   0.50272   1.000
    C364    C    0.22803   0.51848   0.03124   1.000
    C365    C    0.72803   0.51848   0.03124   1.000
    C366    C    0.27738   0.41595   0.91309   1.000
    C367    C    0.77739   0.41595   0.91309   1.000
    C368    C    0.39470   0.51265   0.48142   1.000
    C369    C    0.89470   0.51266   0.48142   1.000
    C370    C    0.44403   0.49762   0.58422   1.000
    C371    C    0.94403   0.49762   0.58422   1.000
    C372    C    0.31141   0.03124   0.51278   1.000
    C373    C    0.81141   0.03124   0.51278   1.000
    C374    C    0.36074   0.91316   0.49726   1.000
    C375    C    0.86074   0.91316   0.49726   1.000
    C376    C    0.47803   0.48159   0.96883   1.000
    C377    C    0.97803   0.48159   0.96883   1.000
    C378    C    0.02741   0.58413   0.08698   1.000
    C379    C    0.52741   0.58413   0.08698   1.000
    C380    C    0.14470   0.48728   0.51861   1.000
    C381    C    0.64471   0.48728   0.51861   1.000
    C382    C    0.19401   0.50228   0.41579   1.000
    C383    C    0.69402   0.50228   0.41579   1.000
    O384    O    0.84460   0.38977   0.03897   1.000
    O385    O    0.34460   0.38976   0.03897   1.000
    O386    O    0.67786   0.53449   0.05385   1.000
    O387    O    0.72921   0.49123   0.99127   1.000
    O388    O    0.17786   0.53449   0.05385   1.000
    O389    O    0.22921   0.49123   0.99127   1.000
    O390    O    0.38587   0.39160   0.05142   1.000
    O391    O    0.88588   0.39161   0.05142   1.000
    O392    O    0.00390   0.56012   0.06787   1.000
    O393    O    0.95174   0.54070   0.07744   1.000
    O394    O    0.97922   0.50885   0.00879   1.000
    O395    O    0.50390   0.56012   0.06787   1.000
    O396    O    0.45174   0.54070   0.07744   1.000
    O397    O    0.47921   0.50885   0.00879   1.000
    O398    O    0.86663   0.44862   0.05820   1.000
    O399    O    0.84826   0.50352   0.06298   1.000
    O400    O    0.89652   0.51658   0.08041   1.000
    O401    O    0.87381   0.46873   0.98913   1.000
    O402    O    0.36663   0.44862   0.05820   1.000
    O403    O    0.34826   0.50352   0.06298   1.000
    O404    O    0.39652   0.51658   0.08041   1.000
    O405    O    0.37381   0.46873   0.98913   1.000
    O406    O    0.85467   0.41921   0.10630   1.000
    O407    O    0.35467   0.41921   0.10630   1.000
    O408    O    0.89957   0.67704   0.08645   1.000
    O409    O    0.39957   0.67704   0.08649   1.000
    O410    O    0.85967   0.66402   0.09010   1.000
    O411    O    0.35966   0.66402   0.09016   1.000
    O412    O    0.57755   0.56732   0.08172   1.000
    O413    O    0.62093   0.50444   0.10544   1.000
    O414    O    0.63805   0.61480   0.11729   1.000
    O415    O    0.62382   0.53134   0.01087   1.000
    O416    O    0.07755   0.56732   0.08172   1.000
    O417    O    0.12092   0.50444   0.10544   1.000
    O418    O    0.13804   0.61480   0.11729   1.000
    O419    O    0.12382   0.53134   0.01087   1.000
    O420    O    0.43228   0.53476   0.12796   1.000
    O421    O    0.41303   0.59249   0.13423   1.000
    O422    O    0.93229   0.53476   0.12796   1.000
    O423    O    0.91303   0.59249   0.13421   1.000
    O424    O    0.87601   0.71368   0.13036   1.000
    O425    O    0.89204   0.65962   0.13570   1.000
    O426    O    0.37601   0.71368   0.13040   1.000
    O427    O    0.39204   0.65962   0.13576   1.000
    O428    O    0.72414   0.68771   0.13693   1.000
    O429    O    0.22414   0.68771   0.13693   1.000
    O430    O    0.76560   0.45848   0.16302   1.000
    O431    O    0.26560   0.45848   0.16302   1.000
    O432    O    0.31526   0.44291   0.16688   1.000
    O433    O    0.36848   0.42681   0.17834   1.000
    O434    O    0.81527   0.44291   0.16688   1.000
    O435    O    0.86849   0.42681   0.17834   1.000
    O436    O    0.17784   0.69467   0.15915   1.000
    O437    O    0.12632   0.70589   0.18605   1.000
    O438    O    0.67785   0.69467   0.15915   1.000
    O439    O    0.62632   0.70589   0.18605   1.000
    O440    O    0.71583   0.75216   0.18941   1.000
    O441    O    0.21582   0.75216   0.18942   1.000
    O442    O    0.92486   0.65638   0.17915   1.000
    O443    O    0.87865   0.64581   0.19615   1.000
    O444    O    0.42486   0.65638   0.17917   1.000
    O445    O    0.37865   0.64581   0.19652   1.000
    O446    O    0.27763   0.46887   0.22503   1.000
    O447    O    0.77763   0.46887   0.22503   1.000
    O448    O    0.91517   0.41350   0.19504   1.000
    O449    O    0.41517   0.41350   0.19504   1.000
    O450    O    0.83101   0.63767   0.21670   1.000
    O451    O    0.33101   0.63766   0.21708   1.000
    O452    O    0.88240   0.43716   0.24768   1.000
    O453    O    0.38240   0.43716   0.24768   1.000
    O454    O    0.58061   0.71919   0.21145   1.000
    O455    O    0.08060   0.71919   0.21145   1.000
    O456    O    0.11110   0.77489   0.24398   1.000
    O457    O    0.61111   0.77489   0.24398   1.000
    O458    O    0.24859   0.80484   0.21831   1.000
    O459    O    0.74859   0.80484   0.21830   1.000
    O460    O    0.70193   0.82158   0.24839   1.000
    O461    O    0.20193   0.82158   0.24840   1.000
    O462    O    0.86273   0.63776   0.24934   1.000
    O463    O    0.85075   0.68629   0.25240   1.000
    O464    O    0.36273   0.63776   0.24969   1.000
    O465    O    0.35074   0.68629   0.25275   1.000
    O466    O    0.54262   0.41622   0.28632   1.000
    O467    O    0.04261   0.41622   0.28632   1.000
    O468    O    0.24712   0.49189   0.28065   1.000
    O469    O    0.29286   0.47985   0.29396   1.000
    O470    O    0.74712   0.49189   0.28065   1.000
    O471    O    0.79286   0.47986   0.29396   1.000
    O472    O    0.64873   0.83308   0.27606   1.000
    O473    O    0.59909   0.83698   0.29560   1.000
    O474    O    0.14873   0.83308   0.27606   1.000
    O475    O    0.09909   0.83698   0.29560   1.000
    O476    O    0.68814   0.89367   0.31289   1.000
    O477    O    0.18813   0.89367   0.31289   1.000
    O478    O    0.51751   0.56607   0.31367   1.000
    O479    O    0.01751   0.56607   0.31367   1.000
    O480    O    0.84442   0.46424   0.30514   1.000
    O481    O    0.89074   0.44904   0.31205   1.000
    O482    O    0.34441   0.46424   0.30514   1.000
    O483    O    0.39073   0.44903   0.31205   1.000
    O484    O    0.06617   0.40899   0.32296   1.000
    O485    O    0.02627   0.42575   0.33598   1.000
    O486    O    0.05869   0.47572   0.34038   1.000
    O487    O    0.56617   0.40898   0.32296   1.000
    O488    O    0.52628   0.42574   0.33598   1.000
    O489    O    0.55869   0.47572   0.34038   1.000
    O490    O    0.80465   0.50220   0.38500   1.000
    O491    O    0.30465   0.50219   0.38500   1.000
    O492    O    0.45429   0.89436   0.39849   1.000
    O493    O    0.95429   0.89436   0.39650   1.000
    O494    O    0.59155   0.52235   0.34362   1.000
    O495    O    0.09155   0.52235   0.34363   1.000
    O496    O    0.71938   0.94854   0.34023   1.000
    O497    O    0.21938   0.94854   0.34023   1.000
    O498    O    0.67810   0.96102   0.35078   1.000
    O499    O    0.70005   0.94178   0.39040   1.000
    O500    O    0.17810   0.96102   0.35078   1.000
    O501    O    0.20005   0.94178   0.39040   1.000
    O502    O    0.04537   0.55034   0.35417   1.000
    O503    O    0.02951   0.61160   0.36221   1.000
    O504    O    0.99775   0.57912   0.36227   1.000
    O505    O    0.54537   0.55033   0.35417   1.000
    O506    O    0.52951   0.61160   0.36216   1.000
    O507    O    0.49775   0.57912   0.36228   1.000
    O508    O    0.19624   0.75019   0.38794   1.000
    O509    O    0.69624   0.75019   0.38793   1.000
    O510    O    0.07971   0.54142   0.40750   1.000
    O511    O    0.57971   0.54141   0.40750   1.000
    O512    O    0.26128   0.35050   0.38980   1.000
    O513    O    0.76128   0.35050   0.38980   1.000
    O514    O    0.30256   0.33992   0.39165   1.000
    O515    O    0.80256   0.33992   0.39167   1.000
    O516    O    0.26561   0.87205   0.40678   1.000
    O517    O    0.76561   0.87205   0.40678   1.000
    O518    O    0.98283   0.08601   0.40899   1.000
    O519    O    0.48283   0.08601   0.40919   1.000
    O520    O    0.33184   0.21830   0.41366   1.000
    O521    O    0.83185   0.21830   0.41366   1.000
    O522    O    0.95927   0.12988   0.41623   1.000
    O523    O    0.45927   0.12988   0.41643   1.000
    O524    O    0.27135   0.31274   0.41932   1.000
    O525    O    0.28331   0.39025   0.44864   1.000
    O526    O    0.77135   0.31275   0.41933   1.000
    O527    O    0.78331   0.39025   0.44864   1.000
    O528    O    0.24418   0.51398   0.43254   1.000
    O529    O    0.17053   0.50732   0.43985   1.000
    O530    O    0.74418   0.51398   0.43254   1.000
    O531    O    0.67053   0.50732   0.43985   1.000
    O532    O    0.66445   0.78276   0.42035   1.000
    O533    O    0.16445   0.78276   0.42036   1.000
    O534    O    0.68421   0.74723   0.43342   1.000
    O535    O    0.71205   0.80353   0.44923   1.000
    O536    O    0.18421   0.74723   0.43343   1.000
    O537    O    0.21204   0.80353   0.44924   1.000
    O538    O    0.94294   0.08973   0.42570   1.000
    O539    O    0.44294   0.08973   0.42591   1.000
    O540    O    0.78517   0.24836   0.42700   1.000
    O541    O    0.79910   0.18944   0.43743   1.000
    O542    O    0.28517   0.24836   0.42700   1.000
    O543    O    0.29909   0.18943   0.43742   1.000
    O544    O    0.97533   0.13540   0.47573   1.000
    O545    O    0.23196   0.27598   0.44313   1.000
    O546    O    0.73197   0.27598   0.44313   1.000
    O547    O    0.47533   0.13540   0.47592   1.000
    O548    O    0.72987   0.91961   0.43617   1.000
    O549    O    0.68162   0.93704   0.44050   1.000
    O550    O    0.70717   0.01090   0.47958   1.000
    O551    O    0.22987   0.91961   0.43617   1.000
    O552    O    0.18162   0.93704   0.44048   1.000
    O553    O    0.20717   0.01090   0.47958   1.000
    O554    O    0.24636   0.86588   0.45828   1.000
    O555    O    0.28509   0.92264   0.46328   1.000
    O556    O    0.74637   0.86588   0.45827   1.000
    O557    O    0.78509   0.92264   0.46328   1.000
    O558    O    0.30743   0.13700   0.44937   1.000
    O559    O    0.80743   0.13700   0.44937   1.000
    O560    O    0.34452   0.51917   0.46535   1.000
    O561    O    0.29049   0.47939   0.46858   1.000
    O562    O    0.28756   0.60082   0.49528   1.000
    O563    O    0.84452   0.51917   0.46535   1.000
    O564    O    0.79049   0.47939   0.46858   1.000
    O565    O    0.78756   0.60082   0.49528   1.000
    O566    O    0.26112   0.15918   0.46461   1.000
    O567    O    0.76112   0.15918   0.46462   1.000
    O568    O    0.11840   0.53648   0.45931   1.000
    O569    O    0.09899   0.59296   0.46523   1.000
    O570    O    0.06320   0.56370   0.48341   1.000
    O571    O    0.61841   0.53647   0.45931   1.000
    O572    O    0.59899   0.59296   0.46523   1.000
    O573    O    0.56320   0.56369   0.48341   1.000
    O574    O    0.68231   0.29548   0.45874   1.000
    O575    O    0.69435   0.24391   0.46921   1.000
    O576    O    0.18231   0.29547   0.45874   1.000
    O577    O    0.19435   0.24391   0.46921   1.000
    O578    O    0.53756   0.39911   0.50474   1.000
    O579    O    0.03756   0.39911   0.50474   1.000
    O580    O    0.14587   0.49982   0.49126   1.000
    O581    O    0.64588   0.49982   0.49126   1.000
    O582    O    0.01122   0.94607   0.47861   1.000
    O583    O    0.91089   0.91829   0.48363   1.000
    O584    O    0.97135   0.88259   0.49540   1.000
    O585    O    0.95718   0.98906   0.51839   1.000
    O586    O    0.51122   0.94607   0.48059   1.000
    O587    O    0.41088   0.91829   0.48562   1.000
    O588    O    0.47135   0.88259   0.49739   1.000
    O589    O    0.45717   0.98906   0.52039   1.000
    O590    O    0.75821   0.82105   0.47728   1.000
    O591    O    0.25821   0.82105   0.47729   1.000
    O592    O    0.72532   0.86445   0.52388   1.000
    O593    O    0.22531   0.86445   0.52389   1.000
    O594    O    0.70958   0.18604   0.48027   1.000
    O595    O    0.72135   0.11733   0.50257   1.000
    O596    O    0.20958   0.18603   0.48027   1.000
    O597    O    0.22135   0.11733   0.50257   1.000
    O598    O    0.51495   0.55937   0.49647   1.000
    O599    O    0.01495   0.55937   0.49647   1.000
    O600    O    0.16385   0.21140   0.49234   1.000
    O601    O    0.66386   0.21140   0.49234   1.000
    O602    O    0.39587   0.50010   0.50875   1.000
    O603    O    0.89588   0.50010   0.50875   1.000
    O604    O    0.56258   0.00868   0.49988   1.000
    O605    O    0.06258   0.00868   0.49989   1.000
    O606    O    0.83725   0.93224   0.49232   1.000
    O607    O    0.81259   0.99128   0.50008   1.000
    O608    O    0.33725   0.93224   0.49232   1.000
    O609    O    0.31258   0.99129   0.50008   1.000
    O610    O    0.26494   0.44051   0.50350   1.000
    O611    O    0.31320   0.43621   0.51658   1.000
    O612    O    0.76494   0.44051   0.50350   1.000
    O613    O    0.81320   0.43621   0.51658   1.000
    O614    O    0.91382   0.78859   0.50772   1.000
    O615    O    0.41382   0.78859   0.50773   1.000
    O616    O    0.08724   0.06772   0.50764   1.000
    O617    O    0.16088   0.08167   0.51436   1.000
    O618    O    0.58724   0.06772   0.50764   1.000
    O619    O    0.66088   0.08167   0.51436   1.000
    O620    O    0.04050   0.52053   0.53142   1.000
    O621    O    0.03330   0.60965   0.55133   1.000
    O622    O    0.54050   0.52053   0.53142   1.000
    O623    O    0.53331   0.60965   0.55133   1.000
    O624    O    0.03507   0.07732   0.53664   1.000
    O625    O    0.53508   0.07732   0.53664   1.000
    O626    O    0.76122   0.05389   0.51939   1.000
    O627    O    0.26121   0.05389   0.51939   1.000
    O628    O    0.59453   0.48076   0.53468   1.000
    O629    O    0.09453   0.48076   0.53468   1.000
    O630    O    0.45957   0.81389   0.51970   1.000
    O631    O    0.44432   0.75605   0.53081   1.000
    O632    O    0.95957   0.81389   0.51971   1.000
    O633    O    0.94433   0.75605   0.53082   1.000
    O634    O    0.51114   0.84066   0.53524   1.000
    O635    O    0.01114   0.84066   0.53524   1.000
    O636    O    0.00816   0.17889   0.52259   1.000
    O637    O    0.99635   0.13404   0.54159   1.000
    O638    O    0.96197   0.19629   0.55053   1.000
    O639    O    0.50816   0.17889   0.52259   1.000
    O640    O    0.49635   0.13404   0.54159   1.000
    O641    O    0.46197   0.19629   0.55053   1.000
    O642    O    0.34899   0.40694   0.53477   1.000
    O643    O    0.84900   0.40694   0.53477   1.000
    O644    O    0.20428   0.10560   0.60110   1.000
    O645    O    0.70428   0.10560   0.60110   1.000
    O646    O    0.86841   0.46343   0.54069   1.000
    O647    O    0.92054   0.49258   0.56015   1.000
    O648    O    0.36841   0.46343   0.54069   1.000
    O649    O    0.42054   0.49258   0.56015   1.000
    O650    O    0.43228   0.70451   0.54131   1.000
    O651    O    0.93228   0.70451   0.54132   1.000
    O652    O    0.48196   0.72394   0.55684   1.000
    O653    O    0.98196   0.72394   0.55685   1.000
    O654    O    0.82973   0.45848   0.59214   1.000
    O655    O    0.32972   0.45848   0.59249   1.000
    O656    O    0.55748   0.86277   0.55037   1.000
    O657    O    0.54913   0.81036   0.56236   1.000
    O658    O    0.05747   0.86277   0.55037   1.000
    O659    O    0.04913   0.81036   0.56236   1.000
    O660    O    0.49419   0.48593   0.56748   1.000
    O661    O    0.55468   0.49777   0.61503   1.000
    O662    O    0.99419   0.48594   0.56748   1.000
    O663    O    0.05468   0.49777   0.61502   1.000
    O664    O    0.43162   0.06292   0.55939   1.000
    O665    O    0.93162   0.06292   0.55939   1.000
    O666    O    0.43405   0.25250   0.56627   1.000
    O667    O    0.93405   0.25250   0.56627   1.000
    O668    O    0.47987   0.08035   0.56375   1.000
    O669    O    0.51561   0.12793   0.59311   1.000
    O670    O    0.97987   0.08035   0.56375   1.000
    O671    O    0.01561   0.12793   0.59311   1.000
    O672    O    0.95005   0.05826   0.60958   1.000
    O673    O    0.45004   0.05826   0.60958   1.000
    O674    O    0.69286   0.91004   0.57383   1.000
    O675    O    0.70923   0.86993   0.58335   1.000
    O676    O    0.73275   0.91386   0.59063   1.000
    O677    O    0.19286   0.91004   0.57383   1.000
    O678    O    0.20923   0.86993   0.58335   1.000
    O679    O    0.23274   0.91386   0.59064   1.000
    O680    O    0.53519   0.75148   0.57285   1.000
    O681    O    0.52135   0.68715   0.58061   1.000
    O682    O    0.03519   0.75148   0.57286   1.000
    O683    O    0.02135   0.68716   0.58062   1.000
    O684    O    0.58190   0.78146   0.58607   1.000
    O685    O    0.08190   0.78146   0.58607   1.000
    O686    O    0.41434   0.21692   0.57931   1.000
    O687    O    0.44607   0.24959   0.61175   1.000
    O688    O    0.91434   0.21692   0.57931   1.000
    O689    O    0.94608   0.24959   0.61180   1.000
    O690    O    0.55255   0.66001   0.60831   1.000
    O691    O    0.51126   0.64941   0.61014   1.000
    O692    O    0.05255   0.66001   0.60828   1.000
    O693    O    0.01126   0.64941   0.61013   1.000
    O694    O    0.74782   0.42071   0.63749   1.000
    O695    O    0.24781   0.42071   0.63770   1.000
    O696    O    0.27960   0.38825   0.63774   1.000
    O697    O    0.77960   0.38825   0.63779   1.000
    O698    O    0.79542   0.44954   0.64549   1.000
    O699    O    0.84158   0.47757   0.65603   1.000
    O700    O    0.80869   0.52416   0.65926   1.000
    O701    O    0.29542   0.44953   0.64580   1.000
    O702    O    0.34158   0.47757   0.65637   1.000
    O703    O    0.30869   0.52416   0.65961   1.000
    O704    O    0.42809   0.03908   0.64924   1.000
    O705    O    0.92809   0.03908   0.64924   1.000
    O706    O    0.77624   0.57410   0.66400   1.000
    O707    O    0.27624   0.57410   0.66400   1.000
    O708    O    0.26761   0.43376   0.68629   1.000
    O709    O    0.76761   0.43377   0.68634   1.000
    O710    O    0.96937   0.05158   0.65981   1.000
    O711    O    0.93812   0.10643   0.68708   1.000
    O712    O    0.46937   0.05158   0.65981   1.000
    O713    O    0.43812   0.10643   0.68708   1.000
    O714    O    0.64079   0.55097   0.68801   1.000
    O715    O    0.14079   0.55097   0.68803   1.000
    O716    O    0.81613   0.59091   0.67704   1.000
    O717    O    0.31613   0.59090   0.67704   1.000
    O718    O    0.09446   0.53577   0.69491   1.000
    O719    O    0.04290   0.52015   0.70606   1.000
    O720    O    0.59446   0.53577   0.69492   1.000
    O721    O    0.54290   0.52014   0.70606   1.000
    O722    O    0.79259   0.58364   0.71366   1.000
    O723    O    0.29259   0.58364   0.71366   1.000
    O724    O    0.84904   0.16304   0.70435   1.000
    O725    O    0.34904   0.16304   0.70439   1.000
    O726    O    0.49716   0.50809   0.71930   1.000
    O727    O    0.99716   0.50809   0.71932   1.000
    O728    O    0.63244   0.56289   0.75241   1.000
    O729    O    0.13244   0.56289   0.75241   1.000
    O730    O    0.89870   0.16700   0.72390   1.000
    O731    O    0.95192   0.17858   0.75152   1.000
    O732    O    0.39870   0.16700   0.72390   1.000
    O733    O    0.45192   0.17858   0.75152   1.000
    O734    O    0.10080   0.31375   0.74716   1.000
    O735    O    0.60080   0.31375   0.74717   1.000
    O736    O    0.86105   0.22515   0.75601   1.000
    O737    O    0.36104   0.22515   0.75601   1.000
    O738    O    0.61280   0.36227   0.75022   1.000
    O739    O    0.11280   0.36227   0.75022   1.000
    O740    O    0.52766   0.53116   0.77495   1.000
    O741    O    0.02765   0.53116   0.77500   1.000
    O742    O    0.08105   0.36237   0.78279   1.000
    O743    O    0.12867   0.35426   0.80345   1.000
    O744    O    0.58105   0.36237   0.78279   1.000
    O745    O    0.62867   0.35426   0.80345   1.000
    O746    O    0.99860   0.19539   0.78155   1.000
    O747    O    0.96582   0.24802   0.81047   1.000
    O748    O    0.49860   0.19539   0.78155   1.000
    O749    O    0.46581   0.24802   0.81047   1.000
    O750    O    0.83052   0.28080   0.78856   1.000
    O751    O    0.87625   0.29417   0.81392   1.000
    O752    O    0.33052   0.28080   0.78856   1.000
    O753    O    0.37625   0.29417   0.81392   1.000
    O754    O    0.66519   0.58660   0.80509   1.000
    O755    O    0.61850   0.57328   0.82175   1.000
    O756    O    0.16519   0.58660   0.80508   1.000
    O757    O    0.11850   0.57328   0.82175   1.000
    O758    O    0.67486   0.34373   0.82084   1.000
    O759    O    0.17486   0.34373   0.82084   1.000
    O760    O    0.56528   0.55717   0.83315   1.000
    O761    O    0.51561   0.54159   0.83698   1.000
    O762    O    0.06527   0.55717   0.83319   1.000
    O763    O    0.01560   0.54159   0.83702   1.000
    O764    O    0.64202   0.34048   0.86424   1.000
    O765    O    0.66302   0.40762   0.86580   1.000
    O766    O    0.14202   0.34048   0.86424   1.000
    O767    O    0.16302   0.40761   0.86580   1.000
    O768    O    0.92780   0.30546   0.84077   1.000
    O769    O    0.97412   0.31249   0.86295   1.000
    O770    O    0.42780   0.30546   0.84077   1.000
    O771    O    0.47411   0.31249   0.86295   1.000
    O772    O    0.38800   0.38528   0.88270   1.000
    O773    O    0.88801   0.38528   0.88270   1.000
    O774    O    0.62599   0.28641   0.86955   1.000
    O775    O    0.12599   0.28641   0.86959   1.000
    O776    O    0.60467   0.58089   0.89379   1.000
    O777    O    0.10466   0.58089   0.89379   1.000
    O778    O    0.68227   0.46536   0.87209   1.000
    O779    O    0.18227   0.46536   0.87209   1.000
    O780    O    0.37091   0.49565   0.89460   1.000
    O781    O    0.87092   0.49565   0.89460   1.000
    O782    O    0.60962   0.33606   0.90979   1.000
    O783    O    0.64952   0.32309   0.91354   1.000
    O784    O    0.10961   0.33606   0.90979   1.000
    O785    O    0.14952   0.32309   0.91354   1.000
    O786    O    0.64650   0.48350   0.91960   1.000
    O787    O    0.70173   0.45941   0.92261   1.000
    O788    O    0.14650   0.48350   0.91960   1.000
    O789    O    0.20173   0.45941   0.92261   1.000
    O790    O    0.82753   0.43275   0.91833   1.000
    O791    O    0.75389   0.43997   0.93219   1.000
    O792    O    0.32753   0.43275   0.91833   1.000
    O793    O    0.25389   0.43997   0.93219   1.000
    O794    O    0.42785   0.46558   0.94620   1.000
    O795    O    0.92785   0.46558   0.94620   1.000
    O796    O    0.09825   0.49655   0.93702   1.000
    O797    O    0.59825   0.49655   0.93702   1.000
    O798    O    0.11661   0.55147   0.94183   1.000
    O799    O    0.13586   0.60851   0.94869   1.000
    O800    O    0.09458   0.61032   0.96110   1.000
    O801    O    0.61661   0.55147   0.94183   1.000
    O802    O    0.63586   0.60851   0.94869   1.000
    O803    O    0.59458   0.61032   0.96110   1.000
loop_
    _geom_bond_atom_site_label_1
    _geom_bond_atom_site_label_2
    _geom_bond_distance
    _geom_bond_site_symmetry_2
    _ccdc_geom_bond_type
    C145   O384      0.54953      .   S
    C291   O384      0.54953      .   S
    C144   O385      0.54954      .   S
    C290   O385      0.54954      .   S
    C365   O386      1.11339      .   S
    C3     O386      1.11339      .   S
    C365   O387      0.63866  1_554   S
    C227   O387      0.63866      .   S
    C364   O388      1.11339      .   S
    C2     O388      1.11339      .   S
    C364   O389      0.63866  1_554   S
    C226   O389      0.63866      .   S
    C142   O390      0.54937      .   S
    C290   O390      0.54937      .   S
    C143   O391      0.54937      .   S
    C291   O391      0.54937      .   S
    C293   O392      0.63255  1_655   S
    C378   O392      0.63255      .   S
    C293   O393      0.77045      .   S
    C295   O393      0.77045      .   S
    C293   O394      0.63865      .   S
    C377   O394      0.63865  1_556   S
    C292   O395      0.63260      .   S
    C379   O395      0.63260      .   S
    C292   O396      0.77045      .   S
    C294   O396      0.77045      .   S
    C292   O397      0.63865      .   S
    C376   O397      0.63865  1_556   S
    C355   O398      0.74607      .   S
    C291   O398      0.74607      .   S
    C355   O399      0.51647      .   S
    C133   O399      0.51647      .   S
    C355   O400      0.74386      .   S
    C295   O400      0.74386      .   S
    C355   O401      1.05721  1_554   S
    C9     O401      1.05721      .   S
    C354   O402      0.74607      .   S
    C290   O402      0.74607      .   S
    C354   O403      0.51647      .   S
    C132   O403      0.51647      .   S
    C354   O404      0.74386      .   S
    C294   O404      0.74386      .   S
    C354   O405      1.05721  1_554   S
    C8     O405      1.05721      .   S
    C291   O406      0.75446      .   S
    C287   O406      0.75446      .   S
    C290   O407      0.75446      .   S
    C286   O407      0.75446      .   S
    C153   O408      0.54854      .   S
    C299   O408      0.54854      .   S
    C152   O409      0.54912      .   S
    C298   O409      0.54912      .   S
    C151   O410      0.54963      .   S
    C299   O410      0.54963      .   S
    C150   O411      0.54979      .   S
    C298   O411      0.54979      .   S
    C3     O412      1.08557      .   S
    C379   O412      1.08557      .   S
    C3     O413      1.19247      .   S
    C327   O413      1.19247      .   S
    C3     O414      1.03967      .   S
    C349   O414      1.03967      .   S
    C3     O415      1.05773      .   S
    C343   O415      1.05773  1_556   S
    C2     O416      1.08557      .   S
    C378   O416      1.08557      .   S
    C2     O417      1.19247      .   S
    C326   O417      1.19247      .   S
    C2     O418      1.03967      .   S
    C348   O418      1.03967      .   S
    C2     O419      1.05773      .   S
    C342   O419      1.05773  1_556   S
    C294   O420      0.55134      .   S
    C146   O420      0.55134      .   S
    C294   O421      0.77152      .   S
    C296   O421      0.77152      .   S
    C295   O422      0.55134      .   S
    C147   O422      0.55134      .   S
    C295   O423      0.77149      .   S
    C297   O423      0.77149      .   S
    C299   O424      0.54926      .   S
    C155   O424      0.54926      .   S
    C299   O425      0.76544      .   S
    C297   O425      0.76544      .   S
    C298   O426      0.54915      .   S
    C154   O426      0.54915      .   S
    C298   O427      0.76505      .   S
    C296   O427      0.76505      .   S
    C107   O428      0.54374      .   S
    C261   O428      0.54374      .   S
    C106   O429      0.54374      .   S
    C260   O429      0.54374      .   S
    C141   O430      0.54577      .   S
    C289   O430      0.54577      .   S
    C140   O431      0.54577      .   S
    C288   O431      0.54577      .   S
    C286   O432      0.70009      .   S
    C288   O432      0.70009      .   S
    C286   O433      0.69960      .   S
    C284   O433      0.69960      .   S
    C287   O434      0.70009      .   S
    C289   O434      0.70009      .   S
    C287   O435      0.69961      .   S
    C285   O435      0.69961      .   S
    C348   O436      0.67498      .   S
    C260   O436      0.67498      .   S
    C348   O437      0.67722      .   S
    C258   O437      0.67722      .   S
    C349   O438      0.67498      .   S
    C261   O438      0.67498      .   S
    C349   O439      0.67722      .   S
    C259   O439      0.67722      .   S
    C261   O440      0.69523      .   S
    C263   O440      0.69523      .   S
    C260   O441      0.69525      .   S
    C262   O441      0.69525      .   S
    C297   O442      0.54964      .   S
    C149   O442      0.54964      .   S
    C297   O443      0.76067      .   S
    C301   O443      0.76067      .   S
    C296   O444      0.54955      .   S
    C148   O444      0.54955      .   S
    C296   O445      0.76504      .   S
    C300   O445      0.76504      .   S
    C288   O446      0.69384      .   S
    C280   O446      0.69384      .   S
    C289   O447      0.69384      .   S
    C281   O447      0.69384      .   S
    C139   O448      0.54512      .   S
    C285   O448      0.54512      .   S
    C138   O449      0.54512      .   S
    C284   O449      0.54512      .   S
    C161   O450      0.54884      .   S
    C301   O450      0.54884      .   S
    C160   O451      0.55000      .   S
    C300   O451      0.55000      .   S
    C285   O452      0.69520      .   S
    C283   O452      0.69520      .   S
    C284   O453      0.69520      .   S
    C282   O453      0.69520      .   S
    C105   O454      0.54402      .   S
    C259   O454      0.54402      .   S
    C104   O455      0.54402      .   S
    C258   O455      0.54402      .   S
    C258   O456      0.69382      .   S
    C266   O456      0.69382      .   S
    C259   O457      0.69381      .   S
    C267   O457      0.69381      .   S
    C108   O458      0.54513      .   S
    C262   O458      0.54513      .   S
    C109   O459      0.54511      .   S
    C263   O459      0.54511      .   S
    C263   O460      0.69957      .   S
    C265   O460      0.69957      .   S
    C262   O461      0.69952      .   S
    C264   O461      0.69952      .   S
    C301   O462      0.55508      .   S
    C159   O462      0.55508      .   S
    C301   O463      0.55021      .   S
    C157   O463      0.55021      .   S
    C300   O464      0.54965      .   S
    C158   O464      0.54965      .   S
    C300   O465      0.54917      .   S
    C156   O465      0.54917      .   S
    C185   O466      0.54920      .   S
    C321   O466      0.54920      .   S
    C184   O467      0.54921      .   S
    C320   O467      0.54921      .   S
    C280   O468      0.54389      .   S
    C134   O468      0.54389      .   S
    C280   O469      0.67728      .   S
    C352   O469      0.67728      .   S
    C281   O470      0.54389      .   S
    C135   O470      0.54389      .   S
    C281   O471      0.67728      .   S
    C353   O471      0.67728      .   S
    C267   O472      0.70005      .   S
    C265   O472      0.70005      .   S
    C267   O473      0.54575      .   S
    C111   O473      0.54575      .   S
    C266   O474      0.70004      .   S
    C264   O474      0.70004      .   S
    C266   O475      0.54575      .   S
    C110   O475      0.54575      .   S
    C265   O476      0.75430      .   S
    C269   O476      0.75430      .   S
    C264   O477      0.75430      .   S
    C268   O477      0.75430      .   S
    C187   O478      0.54918      .   S
    C323   O478      0.54918      .   S
    C186   O479      0.54918      .   S
    C322   O479      0.54918      .   S
    C283   O480      0.67500      .   S
    C353   O480      0.67500      .   S
    C283   O481      0.54376      .   S
    C137   O481      0.54376      .   S
    C282   O482      0.67501      .   S
    C352   O482      0.67501      .   S
    C282   O483      0.54376      .   S
    C136   O483      0.54376      .   S
    C320   O484      0.54906      .   S
    C182   O484      0.54906      .   S
    C320   O485      0.54980      .   S
    C180   O485      0.54980      .   S
    C320   O486      0.76509      .   S
    C318   O486      0.76509      .   S
    C321   O487      0.54907      .   S
    C183   O487      0.54907      .   S
    C321   O488      0.54980      .   S
    C181   O488      0.54980      .   S
    C321   O489      0.76509      .   S
    C319   O489      0.76509      .   S
    C353   O490      1.03973      .   S
    C5     O490      1.03973      .   S
    C352   O491      1.03973      .   S
    C4     O491      1.03973      .   S
    C324   O492      1.19883      .   S
    C0     O492      1.19883      .   S
    C325   O493      1.16584      .   S
    C1     O493      1.16584      .   S
    C179   O494      0.54966      .   S
    C319   O494      0.54966      .   S
    C178   O495      0.54961      .   S
    C318   O495      0.54961      .   S
    C113   O496      0.54936      .   S
    C269   O496      0.54936      .   S
    C112   O497      0.54936      .   S
    C268   O497      0.54936      .   S
    C269   O498      0.54953      .   S
    C115   O498      0.54953      .   S
    C269   O499      0.74570      .   S
    C351   O499      0.74570      .   S
    C268   O500      0.54953      .   S
    C114   O500      0.54953      .   S
    C268   O501      0.74569      .   S
    C350   O501      0.74569      .   S
    C322   O502      0.76502      .   S
    C318   O502      0.76502      .   S
    C322   O503      0.54971      .   S
    C188   O503      0.54971      .   S
    C322   O504      0.54978  1_455   S
    C191   O504      0.54978      .   S
    C323   O505      0.76502      .   S
    C319   O505      0.76502      .   S
    C323   O506      0.54978      .   S
    C189   O506      0.54978      .   S
    C323   O507      0.55000      .   S
    C190   O507      0.55000      .   S
    C128   O508      0.54975      .   S
    C278   O508      0.54975      .   S
    C129   O509      0.54968      .   S
    C279   O509      0.54968      .   S
    C318   O510      0.77155      .   S
    C316   O510      0.77155      .   S
    C319   O511      0.77154      .   S
    C317   O511      0.77154      .   S
    C84    O512      0.54953      .   S
    C246   O512      0.54953      .   S
    C85    O513      0.54959      .   S
    C247   O513      0.54959      .   S
    C82    O514      0.54949      .   S
    C246   O514      0.54949      .   S
    C83    O515      0.54936      .   S
    C247   O515      0.54936      .   S
    C116   O516      0.55147      .   S
    C272   O516      0.55147      .   S
    C117   O517      0.55147      .   S
    C273   O517      0.55147      .   S
    C32    O518      0.54801  1_455   S
    C211   O518      0.54801      .   S
    C33    O519      0.54906      .   S
    C210   O519      0.54906      .   S
    C78    O520      0.54514      .   S
    C240   O520      0.54514      .   S
    C79    O521      0.54514      .   S
    C241   O521      0.54514      .   S
    C35    O522      0.54638      .   S
    C211   O522      0.54638      .   S
    C34    O523      0.54912      .   S
    C210   O523      0.54912      .   S
    C246   O524      0.75438      .   S
    C242   O524      0.75438      .   S
    C246   O525      0.74580      .   S
    C346   O525      0.74580      .   S
    C247   O526      0.75432      .   S
    C243   O526      0.75432      .   S
    C247   O527      0.74577      .   S
    C347   O527      0.74577      .   S
    C382   O528      1.08589      .   S
    C4     O528      1.08589      .   S
    C382   O529      0.63260      .   S
    C314   O529      0.63260      .   S
    C383   O530      1.08589      .   S
    C5     O530      1.08589      .   S
    C383   O531      0.63260      .   S
    C315   O531      0.63260      .   S
    C131   O532      0.54999      .   S
    C279   O532      0.54999      .   S
    C130   O533      0.54999      .   S
    C278   O533      0.54999      .   S
    C279   O534      0.54923      .   S
    C127   O534      0.54923      .   S
    C279   O535      0.76508      .   S
    C275   O535      0.76508      .   S
    C278   O536      0.54916      .   S
    C126   O536      0.54916      .   S
    C278   O537      0.76507      .   S
    C274   O537      0.76507      .   S
    C31    O538      0.55045      .   S
    C211   O538      0.55045      .   S
    C30    O539      0.54980      .   S
    C210   O539      0.54980      .   S
    C241   O540      0.69957      .   S
    C243   O540      0.69957      .   S
    C241   O541      0.69527      .   S
    C239   O541      0.69527      .   S
    C240   O542      0.69957      .   S
    C242   O542      0.69957      .   S
    C240   O543      0.69521      .   S
    C238   O543      0.69521      .   S
    C211   O544      0.76788      .   S
    C209   O544      0.76788      .   S
    C242   O545      0.70009      .   S
    C244   O545      0.70009      .   S
    C243   O546      0.70008      .   S
    C245   O546      0.70008      .   S
    C210   O547      0.76512      .   S
    C208   O547      0.76512      .   S
    C351   O548      0.74365      .   S
    C273   O548      0.74365      .   S
    C351   O549      0.51647      .   S
    C103   O549      0.51647      .   S
    C351   O550      1.05749  1_565   S
    C7     O550      1.05749      .   S
    C350   O551      0.74365      .   S
    C272   O551      0.74365      .   S
    C350   O552      0.51633      .   S
    C102   O552      0.51633      .   S
    C350   O553      1.05748  1_565   S
    C6     O553      1.05748      .   S
    C272   O554      0.77154      .   S
    C274   O554      0.77154      .   S
    C272   O555      0.77040      .   S
    C270   O555      0.77040      .   S
    C273   O556      0.77147      .   S
    C275   O556      0.77147      .   S
    C273   O557      0.77040      .   S
    C271   O557      0.77040      .   S
    C76    O558      0.54373      .   S
    C238   O558      0.54373      .   S
    C77    O559      0.54370      .   S
    C239   O559      0.54370      .   S
    C4     O560      1.11347      .   S
    C368   O560      1.11347      .   S
    C4     O561      1.05760      .   S
    C346   O561      1.05760      .   S
    C4     O562      1.19245      .   S
    C328   O562      1.19245      .   S
    C5     O563      1.11347      .   S
    C369   O563      1.11347      .   S
    C5     O564      1.05759      .   S
    C347   O564      1.05759      .   S
    C5     O565      1.19246      .   S
    C329   O565      1.19246      .   S
    C238   O566      0.67501      .   S
    C344   O566      0.67501      .   S
    C239   O567      0.67499      .   S
    C345   O567      0.67499      .   S
    C316   O568      0.77041      .   S
    C314   O568      0.77041      .   S
    C316   O569      0.55148      .   S
    C176   O569      0.55148      .   S
    C316   O570      0.74368      .   S
    C358   O570      0.74368      .   S
    C317   O571      0.77041      .   S
    C315   O571      0.77041      .   S
    C317   O572      0.55149      .   S
    C177   O572      0.55149      .   S
    C317   O573      0.74368      .   S
    C359   O573      0.74368      .   S
    C245   O574      0.54577      .   S
    C81    O574      0.54577      .   S
    C245   O575      0.69385      .   S
    C237   O575      0.69385      .   S
    C244   O576      0.54576      .   S
    C80    O576      0.54576      .   S
    C244   O577      0.69385      .   S
    C236   O577      0.69385      .   S
    C335   O578      1.19245      .   S
    C11    O578      1.19245      .   S
    C334   O579      1.19245      .   S
    C10    O579      1.19245      .   S
    C314   O580      0.63862      .   S
    C380   O580      0.63862      .   S
    C315   O581      0.63862      .   S
    C381   O581      0.63862      .   S
    C1     O582      1.11173  1_655   S
    C360   O582      1.11173      .   S
    C1     O583      1.09465      .   S
    C375   O583      1.09465      .   S
    C1     O584      1.06751      .   S
    C357   O584      1.06751      .   S
    C1     O585      1.06644      .   S
    C339   O585      1.06644  1_545   S
    C0     O586      1.11400      .   S
    C361   O586      1.11400      .   S
    C0     O587      1.08557      .   S
    C374   O587      1.08557      .   S
    C0     O588      1.03976      .   S
    C356   O588      1.03976      .   S
    C0     O589      1.05755      .   S
    C338   O589      1.05755  1_545   S
    C119   O590      0.54965      .   S
    C275   O590      0.54965      .   S
    C118   O591      0.54964      .   S
    C274   O591      0.54964      .   S
    C275   O592      0.76506      .   S
    C277   O592      0.76506      .   S
    C274   O593      0.76506      .   S
    C276   O593      0.76506      .   S
    C345   O594      0.67726      .   S
    C237   O594      0.67726      .   S
    C345   O595      1.03976      .   S
    C7     O595      1.03976      .   S
    C344   O596      0.67726      .   S
    C236   O596      0.67726      .   S
    C344   O597      1.03975      .   S
    C6     O597      1.03975      .   S
    C162   O598      0.51648      .   S
    C359   O598      0.51648      .   S
    C163   O599      0.51643  1_655   S
    C358   O599      0.51643      .   S
    C236   O600      0.54403      .   S
    C74    O600      0.54403      .   S
    C237   O601      0.54406      .   S
    C75    O601      0.54406      .   S
    C368   O602      0.63856      .   S
    C248   O602      0.63856      .   S
    C369   O603      0.63856      .   S
    C249   O603      0.63856      .   S
    C361   O604      0.63869  1_565   S
    C205   O604      0.63869      .   S
    C360   O605      0.63875  1_565   S
    C204   O605      0.63875      .   S
    C271   O606      0.63262      .   S
    C375   O606      0.63262      .   S
    C271   O607      0.63875      .   S
    C373   O607      0.63875  1_545   S
    C270   O608      0.63262      .   S
    C374   O608      0.63262      .   S
    C270   O609      0.63875      .   S
    C372   O609      0.63875  1_545   S
    C346   O610      0.51648      .   S
    C72    O610      0.51648      .   S
    C346   O611      0.74371      .   S
    C250   O611      0.74371      .   S
    C347   O612      0.51648      .   S
    C73    O612      0.51648      .   S
    C347   O613      0.74369      .   S
    C251   O613      0.74369      .   S
    C165   O614      0.54426      .   S
    C303   O614      0.54426      .   S
    C164   O615      0.54403      .   S
    C302   O615      0.54403      .   S
    C362   O616      0.63263      .   S
    C204   O616      0.63263      .   S
    C362   O617      1.08557      .   S
    C6     O617      1.08557      .   S
    C363   O618      0.63263      .   S
    C205   O618      0.63263      .   S
    C363   O619      1.08557      .   S
    C7     O619      1.08557      .   S
    C358   O620      1.05754      .   S
    C10    O620      1.05754      .   S
    C358   O621      0.74577      .   S
    C312   O621      0.74577      .   S
    C359   O622      1.05754      .   S
    C11    O622      1.05754      .   S
    C359   O623      0.74578      .   S
    C313   O623      0.74578      .   S
    C204   O624      0.77038      .   S
    C206   O624      0.77038      .   S
    C205   O625      0.77039      .   S
    C207   O625      0.77039      .   S
    C373   O626      1.11398      .   S
    C7     O626      1.11398      .   S
    C372   O627      1.11398      .   S
    C6     O627      1.11398      .   S
    C381   O628      1.11346      .   S
    C11    O628      1.11346      .   S
    C380   O629      1.11346      .   S
    C10    O629      1.11346      .   S
    C302   O630      0.67726      .   S
    C356   O630      0.67726      .   S
    C302   O631      0.69387      .   S
    C310   O631      0.69387      .   S
    C303   O632      0.67725      .   S
    C357   O632      0.67725      .   S
    C303   O633      0.69386      .   S
    C311   O633      0.69386      .   S
    C356   O634      0.67499      .   S
    C305   O634      0.67499      .   S
    C357   O635      0.67491  1_655   S
    C304   O635      0.67491      .   S
    C209   O636      0.54960  1_655   S
    C28    O636      0.54960      .   S
    C209   O637      0.77144      .   S
    C206   O637      0.77144  1_455   S
    C209   O638      0.76504      .   S
    C213   O638      0.76504      .   S
    C208   O639      0.54965      .   S
    C29    O639      0.54965      .   S
    C208   O640      0.77146      .   S
    C207   O640      0.77146      .   S
    C208   O641      0.76504      .   S
    C212   O641      0.76504      .   S
    C86    O642      0.55148      .   S
    C250   O642      0.55148      .   S
    C87    O643      0.55148      .   S
    C251   O643      0.55148      .   S
    C6     O644      1.19225      .   S
    C330   O644      1.19225      .   S
    C7     O645      1.19226      .   S
    C331   O645      1.19226      .   S
    C249   O646      0.77045      .   S
    C251   O646      0.77045      .   S
    C249   O647      0.63263      .   S
    C371   O647      0.63263      .   S
    C248   O648      0.77045      .   S
    C250   O648      0.77045      .   S
    C248   O649      0.63264      .   S
    C370   O649      0.63264      .   S
    C170   O650      0.54576      .   S
    C310   O650      0.54576      .   S
    C171   O651      0.54576      .   S
    C311   O651      0.54576      .   S
    C310   O652      0.70007      .   S
    C309   O652      0.70007      .   S
    C311   O653      0.70001      .   S
    C308   O653      0.70001  1_455   S
    C251   O654      0.76601      .   S
    C253   O654      0.76601      .   S
    C250   O655      0.77149      .   S
    C252   O655      0.77149      .   S
    C305   O656      0.54369      .   S
    C167   O656      0.54369      .   S
    C305   O657      0.69526      .   S
    C307   O657      0.69526      .   S
    C304   O658      0.54369      .   S
    C166   O658      0.54369      .   S
    C304   O659      0.69526      .   S
    C306   O659      0.69526      .   S
    C11    O660      1.08588      .   S
    C370   O660      1.08588      .   S
    C11    O661      1.03975      .   S
    C341   O661      1.03975      .   S
    C10    O662      1.08582  1_455   S
    C371   O662      1.08582      .   S
    C10    O663      1.03958      .   S
    C340   O663      1.03958      .   S
    C12    O664      0.51667      .   S
    C338   O664      0.51667      .   S
    C13    O665      0.51667      .   S
    C339   O665      0.51667      .   S
    C36    O666      0.54914      .   S
    C212   O666      0.54914      .   S
    C37    O667      0.54915      .   S
    C213   O667      0.54915      .   S
    C207   O668      0.74363      .   S
    C338   O668      0.74363      .   S
    C207   O669      0.55146      .   S
    C27    O669      0.55146      .   S
    C206   O670      0.74359  1_455   S
    C339   O670      0.74359      .   S
    C206   O671      0.55140      .   S
    C26    O671      0.55140      .   S
    C339   O672      0.74579      .   S
    C203   O672      0.74579      .   S
    C338   O673      0.74579      .   S
    C202   O673      0.74579      .   S
    C277   O674      0.54978      .   S
    C121   O674      0.54978      .   S
    C277   O675      0.54917      .   S
    C125   O675      0.54917      .   S
    C277   O676      0.54908      .   S
    C123   O676      0.54908      .   S
    C276   O677      0.54980      .   S
    C120   O677      0.54980      .   S
    C276   O678      0.54910      .   S
    C124   O678      0.54910      .   S
    C276   O679      0.54908      .   S
    C122   O679      0.54908      .   S
    C309   O680      0.69956      .   S
    C307   O680      0.69956      .   S
    C309   O681      0.75437      .   S
    C313   O681      0.75437      .   S
    C308   O682      0.69959      .   S
    C306   O682      0.69959      .   S
    C308   O683      0.75431      .   S
    C312   O683      0.75431      .   S
    C307   O684      0.54511      .   S
    C169   O684      0.54511      .   S
    C306   O685      0.54512      .   S
    C168   O685      0.54512      .   S
    C212   O686      0.55000      .   S
    C40    O686      0.55000      .   S
    C212   O687      0.54915      .   S
    C38    O687      0.54915      .   S
    C213   O688      0.55001      .   S
    C41    O688      0.55001      .   S
    C213   O689      0.54977      .   S
    C39    O689      0.54977      .   S
    C313   O690      0.54936      .   S
    C173   O690      0.54936      .   S
    C313   O691      0.54953      .   S
    C174   O691      0.54953      .   S
    C312   O692      0.54907      .   S
    C172   O692      0.54907      .   S
    C312   O693      0.54928      .   S
    C175   O693      0.54928  1_655   S
    C101   O694      0.55206      .   S
    C257   O694      0.55206      .   S
    C100   O695      0.54970      .   S
    C256   O695      0.54970      .   S
    C98    O696      0.54978      .   S
    C256   O696      0.54978      .   S
    C99    O697      0.54973      .   S
    C257   O697      0.54973      .   S
    C253   O698      0.76806      .   S
    C257   O698      0.76806      .   S
    C253   O699      0.55312      .   S
    C89    O699      0.55312      .   S
    C253   O700      0.76461      .   S
    C255   O700      0.76461      .   S
    C252   O701      0.76473      .   S
    C256   O701      0.76473      .   S
    C252   O702      0.54968      .   S
    C88    O702      0.54968      .   S
    C252   O703      0.76508      .   S
    C254   O703      0.76508      .   S
    C24    O704      0.54952      .   S
    C202   O704      0.54952      .   S
    C25    O705      0.54953      .   S
    C203   O705      0.54953      .   S
    C91    O706      0.54978      .   S
    C255   O706      0.54978      .   S
    C90    O707      0.54978      .   S
    C254   O707      0.54978      .   S
    C256   O708      0.54977      .   S
    C96    O708      0.54977      .   S
    C257   O709      0.54918      .   S
    C97    O709      0.54918      .   S
    C203   O710      0.54935      .   S
    C23    O710      0.54935      .   S
    C203   O711      0.75433      .   S
    C199   O711      0.75433      .   S
    C202   O712      0.54935      .   S
    C22    O712      0.54935      .   S
    C202   O713      0.75433      .   S
    C198   O713      0.75433      .   S
    C47    O714      0.54406      .   S
    C217   O714      0.54406      .   S
    C46    O715      0.54377      .   S
    C216   O715      0.54377      .   S
    C93    O716      0.54904      .   S
    C255   O716      0.54904      .   S
    C92    O717      0.54905      .   S
    C254   O717      0.54905      .   S
    C340   O718      0.67506      .   S
    C216   O718      0.67506      .   S
    C340   O719      0.67741      .   S
    C214   O719      0.67741      .   S
    C341   O720      0.67501      .   S
    C217   O720      0.67501      .   S
    C341   O721      0.67716      .   S
    C215   O721      0.67716      .   S
    C255   O722      0.54916      .   S
    C95    O722      0.54916      .   S
    C254   O723      0.54916      .   S
    C94    O723      0.54916      .   S
    C21    O724      0.54604      .   S
    C201   O724      0.54604      .   S
    C20    O725      0.54576      .   S
    C200   O725      0.54576      .   S
    C44    O726      0.54401      .   S
    C215   O726      0.54401      .   S
    C45    O727      0.54398      .   S
    C214   O727      0.54398  1_455   S
    C217   O728      0.69521      .   S
    C219   O728      0.69521      .   S
    C216   O729      0.69521      .   S
    C218   O729      0.69521      .   S
    C199   O730      0.70006      .   S
    C201   O730      0.70006      .   S
    C199   O731      0.69955      .   S
    C197   O731      0.69955      .   S
    C198   O732      0.70007      .   S
    C200   O732      0.70007      .   S
    C198   O733      0.69954      .   S
    C196   O733      0.69954      .   S
    C66    O734      0.54921      .   S
    C234   O734      0.54921      .   S
    C67    O735      0.54917      .   S
    C235   O735      0.54917      .   S
    C201   O736      0.69384      .   S
    C193   O736      0.69384      .   S
    C200   O737      0.69384      .   S
    C192   O737      0.69384      .   S
    C69    O738      0.54967      .   S
    C235   O738      0.54967      .   S
    C68    O739      0.54967      .   S
    C234   O739      0.54967      .   S
    C215   O740      0.69335      .   S
    C223   O740      0.69335      .   S
    C214   O741      0.69386      .   S
    C222   O741      0.69386      .   S
    C234   O742      0.55001      .   S
    C70    O742      0.55001      .   S
    C234   O743      0.76509      .   S
    C230   O743      0.76509      .   S
    C235   O744      0.55001      .   S
    C71    O744      0.55001      .   S
    C235   O745      0.76509      .   S
    C231   O745      0.76509      .   S
    C197   O746      0.54504      .   S
    C18    O746      0.54504  1_455   S
    C197   O747      0.69523      .   S
    C195   O747      0.69523      .   S
    C196   O748      0.54511      .   S
    C19    O748      0.54511      .   S
    C196   O749      0.69523      .   S
    C194   O749      0.69523      .   S
    C193   O750      0.54403      .   S
    C15    O750      0.54403      .   S
    C193   O751      0.67725      .   S
    C337   O751      0.67725      .   S
    C192   O752      0.54403      .   S
    C14    O752      0.54403      .   S
    C192   O753      0.67723      .   S
    C336   O753      0.67723      .   S
    C219   O754      0.54514      .   S
    C49    O754      0.54514      .   S
    C219   O755      0.69962      .   S
    C221   O755      0.69962      .   S
    C218   O756      0.54514      .   S
    C48    O756      0.54514      .   S
    C218   O757      0.69961      .   S
    C220   O757      0.69961      .   S
    C59    O758      0.54979      .   S
    C231   O758      0.54979      .   S
    C58    O759      0.54980      .   S
    C230   O759      0.54980      .   S
    C223   O760      0.70024      .   S
    C221   O760      0.70024      .   S
    C223   O761      0.54625      .   S
    C51    O761      0.54625      .   S
    C222   O762      0.70006      .   S
    C220   O762      0.70006      .   S
    C222   O763      0.54575      .   S
    C50    O763      0.54575  1_655   S
    C231   O764      0.76500      .   S
    C233   O764      0.76500      .   S
    C231   O765      0.77153      .   S
    C229   O765      0.77153      .   S
    C230   O766      0.76500      .   S
    C232   O766      0.76500      .   S
    C230   O767      0.77152      .   S
    C228   O767      0.77152      .   S
    C195   O768      0.67498      .   S
    C337   O768      0.67498      .   S
    C195   O769      0.54371      .   S
    C17    O769      0.54371      .   S
    C194   O770      0.67499      .   S
    C336   O770      0.67499      .   S
    C194   O771      0.54370      .   S
    C16    O771      0.54370      .   S
    C336   O772      1.03961      .   S
    C8     O772      1.03961      .   S
    C337   O773      1.03961      .   S
    C9     O773      1.03961      .   S
    C65    O774      0.54925      .   S
    C233   O774      0.54925      .   S
    C64    O775      0.54915      .   S
    C232   O775      0.54915      .   S
    C221   O776      0.75435      .   S
    C225   O776      0.75435      .   S
    C220   O777      0.75435      .   S
    C224   O777      0.75435      .   S
    C57    O778      0.55148      .   S
    C229   O778      0.55148      .   S
    C56    O779      0.55149      .   S
    C228   O779      0.55149      .   S
    C332   O780      1.19250      .   S
    C8     O780      1.19250      .   S
    C333   O781      1.19250      .   S
    C9     O781      1.19250      .   S
    C233   O782      0.54980      .   S
    C61    O782      0.54980      .   S
    C233   O783      0.54907      .   S
    C63    O783      0.54907      .   S
    C232   O784      0.54980      .   S
    C60    O784      0.54980      .   S
    C232   O785      0.54908      .   S
    C62    O785      0.54908      .   S
    C229   O786      0.74368      .   S
    C343   O786      0.74368      .   S
    C229   O787      0.77045      .   S
    C227   O787      0.77045      .   S
    C228   O788      0.74369      .   S
    C342   O788      0.74369      .   S
    C228   O789      0.77044      .   S
    C226   O789      0.77044      .   S
    C367   O790      1.08557      .   S
    C9     O790      1.08557      .   S
    C367   O791      0.63261      .   S
    C227   O791      0.63261      .   S
    C366   O792      1.08557      .   S
    C8     O792      1.08557      .   S
    C366   O793      0.63261      .   S
    C226   O793      0.63261      .   S
    C8     O794      1.11347      .   S
    C376   O794      1.11347      .   S
    C9     O795      1.11348      .   S
    C377   O795      1.11348      .   S
    C42    O796      0.51646      .   S
    C342   O796      0.51646      .   S
    C43    O797      0.51646      .   S
    C343   O797      0.51646      .   S
    C224   O798      0.74578      .   S
    C342   O798      0.74578      .   S
    C224   O799      0.54938      .   S
    C52    O799      0.54938      .   S
    C224   O800      0.54956      .   S
    C54    O800      0.54956      .   S
    C225   O801      0.74578      .   S
    C343   O801      0.74578      .   S
    C225   O802      0.54937      .   S
    C53    O802      0.54937      .   S
    C225   O803      0.54955      .   S
    C55    O803      0.54955      .   S
