# CIF file generated by openbabel 2.4.90, see http://openbabel.sf.net
data_I
_chemical_name_common ''
_cell_length_a 20.975
_cell_length_b 18.056
_cell_length_c 18.058
_cell_angle_alpha 120.058
_cell_angle_beta 90.008
_cell_angle_gamma 90.002
_space_group_name_H-M_alt 'P 1'
_space_group_name_Hall 'P 1'
loop_
    _symmetry_equiv_pos_as_xyz
    x,y,z
loop_
    _atom_site_label
    _atom_site_type_symbol
    _atom_site_fract_x
    _atom_site_fract_y
    _atom_site_fract_z
    _atom_site_occupancy
    N0      N    0.45607   0.15698   0.62196   1.000
    N1      N    0.12271   0.46513   0.84301   1.000
    N2      N    0.62271   0.46513   0.84301   1.000
    N3      N    0.28940   0.37801   0.53504   1.000
    N4      N    0.78940   0.37801   0.53500   1.000
    N5      N    0.20610   0.84299   0.37793   1.000
    N6      N    0.70610   0.84299   0.37793   1.000
    N7      N    0.37270   0.53494   0.15702   1.000
    N8      N    0.87271   0.53494   0.15698   1.000
    N9      N    0.95607   0.15698   0.62194   1.000
    N10     N    0.53939   0.62187   0.46492   1.000
    N11     N    0.03939   0.62187   0.46492   1.000
    Zr12    Zr   0.87092   0.49565   0.89460   1.000
    O13     O    0.79802   0.47230   0.88764   1.000
    O14     O    0.88560   0.49795   0.97310   1.000
    O15     O    0.89648   0.38339   0.82346   1.000
    O16     O    0.87209   0.49874   0.98383   1.000
    Zr17    Zr   0.70428   0.10560   0.60110   1.000
    O18     O    0.70546   0.01627   0.51493   1.000
    O19     O    0.71897   0.02702   0.52488   1.000
    O20     O    0.72983   0.17663   0.55995   1.000
    O21     O    0.63138   0.11246   0.58463   1.000
    Zr22    Zr   0.45429   0.89436   0.39849   1.000
    O23     O    0.47983   0.82329   0.43982   1.000
    O24     O    0.38139   0.88750   0.41514   1.000
    O25     O    0.45545   0.98369   0.48483   1.000
    O26     O    0.46897   0.97294   0.47489   1.000
    Zr27    Zr   0.95429   0.89436   0.39650   1.000
    O28     O    0.95546   0.98369   0.48333   1.000
    O29     O    0.96897   0.97294   0.47339   1.000
    O30     O    0.88139   0.88750   0.41364   1.000
    O31     O    0.97983   0.82330   0.43833   1.000
    Zr32    Zr   0.53756   0.39911   0.50474   1.000
    O33     O    0.55226   0.47521   0.50227   1.000
    O34     O    0.53876   0.48516   0.50146   1.000
    O35     O    0.56313   0.44028   0.61688   1.000
    O36     O    0.46468   0.41554   0.52800   1.000
    Zr37    Zr   0.03756   0.39911   0.50474   1.000
    O38     O    0.03875   0.48516   0.50146   1.000
    O39     O    0.96468   0.41554   0.52799   1.000
    O40     O    0.06313   0.44028   0.61688   1.000
    O41     O    0.05226   0.47522   0.50227   1.000
    Zr42    Zr   0.20428   0.10560   0.60110   1.000
    O43     O    0.20546   0.01627   0.51493   1.000
    O44     O    0.21897   0.02702   0.52488   1.000
    O45     O    0.13138   0.11246   0.58463   1.000
    O46     O    0.22983   0.17663   0.55995   1.000
    Zr47    Zr   0.12092   0.50444   0.10544   1.000
    O48     O    0.04802   0.52778   0.11240   1.000
    O49     O    0.13560   0.50212   0.02694   1.000
    O50     O    0.12209   0.50134   0.01619   1.000
    O51     O    0.14650   0.61667   0.17653   1.000
    Zr52    Zr   0.62093   0.50444   0.10544   1.000
    O53     O    0.62210   0.50134   0.01619   1.000
    O54     O    0.64650   0.61667   0.17653   1.000
    O55     O    0.54803   0.52778   0.11241   1.000
    O56     O    0.63561   0.50212   0.02694   1.000
    Zr57    Zr   0.28756   0.60082   0.49528   1.000
    O58     O    0.21467   0.58438   0.47201   1.000
    O59     O    0.28875   0.51476   0.49855   1.000
    O60     O    0.30226   0.52471   0.49774   1.000
    O61     O    0.31312   0.55969   0.38315   1.000
    Zr62    Zr   0.78756   0.60082   0.49528   1.000
    O63     O    0.81312   0.55970   0.38314   1.000
    O64     O    0.71467   0.58438   0.47201   1.000
    O65     O    0.80226   0.52471   0.49773   1.000
    O66     O    0.78875   0.51476   0.49854   1.000
    Zr67    Zr   0.37091   0.49565   0.89460   1.000
    O68     O    0.38559   0.49795   0.97311   1.000
    O69     O    0.29802   0.47229   0.88764   1.000
    O70     O    0.37209   0.49874   0.98384   1.000
    O71     O    0.39648   0.38339   0.82347   1.000
loop_
    _geom_bond_atom_site_label_1
    _geom_bond_atom_site_label_2
    _geom_bond_distance
    _geom_bond_site_symmetry_2
    _ccdc_geom_bond_type
    Zr12   O13       1.57428      .   S
    N2     O13       3.75257      .   S
    Zr12   O14       1.43054      .   S
    N8     O14       3.05358  1_554   S
    Zr12   O15       1.85420      .   S
    N9     O15       4.07629      .   S
    Zr12   O16       1.58422      .   S
    N8     O16       2.85602  1_554   S
    Zr17   O18       1.58406      .   S
    N6     O18       2.85583  1_565   S
    Zr17   O19       1.43050      .   S
    N6     O19       3.05326  1_565   S
    Zr17   O20       1.85467      .   S
    N4     O20       4.07750      .   S
    Zr17   O21       1.57442      .   S
    N0     O21       3.75223      .   S
    Zr22   O23       1.85736      .   S
    N10    O23       4.07980      .   S
    Zr22   O24       1.57511      .   S
    N5     O24       3.75148      .   S
    Zr22   O25       1.58552      .   S
    N0     O25       2.85665  1_545   S
    Zr22   O26       1.43183      .   S
    N0     O26       3.05421  1_545   S
    Zr27   O28       1.58977      .   S
    N9     O28       2.86530  1_545   S
    Zr27   O29       1.43605      .   S
    N9     O29       3.06301  1_545   S
    Zr27   O30       1.57722      .   S
    N6     O30       3.74965      .   S
    Zr27   O31       1.86409      .   S
    N11    O31       4.09486  1_455   S
    Zr32   O33       1.43062      .   S
    N10    O33       3.05433      .   S
    Zr32   O34       1.58436      .   S
    N10    O34       2.85669      .   S
    Zr32   O35       1.85266      .   S
    N2     O35       4.07431      .   S
    Zr32   O36       1.57379      .   S
    N3     O36       3.75210      .   S
    Zr37   O38       1.58437      .   S
    N11    O38       2.85671      .   S
    Zr37   O39       1.57371  1_455   S
    N4     O39       3.75196      .   S
    Zr37   O40       1.85265      .   S
    N1     O40       4.07443      .   S
    Zr37   O41       1.43063      .   S
    N11    O41       3.05436      .   S
    Zr42   O43       1.58406      .   S
    N5     O43       2.85582  1_565   S
    Zr42   O44       1.43050      .   S
    N5     O44       3.05325  1_565   S
    Zr42   O45       1.57442      .   S
    N9     O45       3.75217  1_655   S
    Zr42   O46       1.85454      .   S
    N3     O46       4.07722      .   S
    Zr47   O48       1.57432      .   S
    N8     O48       3.75290  1_655   S
    Zr47   O49       1.43080      .   S
    N1     O49       3.05422  1_556   S
    Zr47   O50       1.58461      .   S
    N1     O50       2.85654  1_556   S
    Zr47   O51       1.85361      .   S
    N5     O51       4.07429      .   S
    Zr52   O53       1.58463      .   S
    N2     O53       2.85661  1_556   S
    Zr52   O54       1.85361      .   S
    N6     O54       4.07428      .   S
    Zr52   O55       1.57434      .   S
    N7     O55       3.75307      .   S
    Zr52   O56       1.43082      .   S
    N2     O56       3.05429  1_556   S
    Zr57   O58       1.57379      .   S
    N11    O58       3.75207      .   S
    Zr57   O59       1.58447      .   S
    N3     O59       2.85677      .   S
    Zr57   O60       1.43074      .   S
    N3     O60       3.05440      .   S
    Zr57   O61       1.85292      .   S
    N7     O61       4.07549      .   S
    Zr62   O63       1.85305      .   S
    N8     O63       4.07589      .   S
    Zr62   O64       1.57380      .   S
    N10    O64       3.75209      .   S
    Zr62   O65       1.43065      .   S
    N4     O65       3.05408      .   S
    Zr62   O66       1.58438      .   S
    N4     O66       2.85645      .   S
    Zr67   O68       1.43068      .   S
    N7     O68       3.05399  1_554   S
    Zr67   O69       1.57427      .   S
    N1     O69       3.75254      .   S
    Zr67   O70       1.58436      .   S
    N7     O70       2.85643  1_554   S
    Zr67   O71       1.85419      .   S
    N0     O71       4.07623      .   S
