# CIF file generated by openbabel 2.4.90, see http://openbabel.sf.net
data_I
_chemical_name_common ''
_cell_length_a 18.419
_cell_length_b 18.425
_cell_length_c 18.425
_cell_angle_alpha 60.219
_cell_angle_beta 60.19
_cell_angle_gamma 60.192
_space_group_name_H-M_alt 'P 1'
_space_group_name_Hall 'P 1'
loop_
    _symmetry_equiv_pos_as_xyz
    x,y,z
loop_
    _atom_site_label
    _atom_site_type_symbol
    _atom_site_fract_x
    _atom_site_fract_y
    _atom_site_fract_z
    _atom_site_occupancy
    C0      C    0.11091   0.38883   0.11099   1.000
    C1      C    0.38911   0.11127   0.38907   1.000
    C2      C    0.11091   0.11100   0.38882   1.000
    C3      C    0.38911   0.38907   0.11127   1.000
    C4      C    0.11125   0.38906   0.38906   1.000
    C5      C    0.38881   0.11099   0.11099   1.000
    C6      C    0.61118   0.88900   0.88899   1.000
    C7      C    0.88874   0.61093   0.61090   1.000
    C8      C    0.88908   0.88900   0.61116   1.000
    C9      C    0.61088   0.61092   0.88871   1.000
    C10     C    0.61088   0.88872   0.61090   1.000
    C11     C    0.88908   0.61117   0.88899   1.000
