# CIF file generated by openbabel 2.4.90, see http://openbabel.sf.net
data_I
_chemical_name_common ''
_cell_length_a 18.419
_cell_length_b 18.425
_cell_length_c 18.425
_cell_angle_alpha 60.219
_cell_angle_beta 60.19
_cell_angle_gamma 60.192
_space_group_name_H-M_alt 'P 1'
_space_group_name_Hall 'P 1'
loop_
    _symmetry_equiv_pos_as_xyz
    x,y,z
loop_
    _atom_site_label
    _atom_site_type_symbol
    _atom_site_fract_x
    _atom_site_fract_y
    _atom_site_fract_z
    _atom_site_occupancy
    N0      N    0.99999   0.50000   0.99998   1.000
    N1      N    0.49999   0.50000   0.99999   1.000
    N2      N    0.99999   1.00000   0.49999   1.000
    N3      N    0.49999   1.00000   0.49998   1.000
    N4      N    0.49999   1.00000   0.99999   1.000
    N5      N    0.99999   0.50000   0.49999   1.000
    Zr6     Zr   0.25002   0.25005   0.25003   1.000
    O7      O    0.35439   0.14560   0.14559   1.000
    O8      O    0.35445   0.35445   0.14565   1.000
    O9      O    0.14557   0.35441   0.14559   1.000
    O10     O    0.14557   0.14560   0.35440   1.000
    O11     O    0.35445   0.14566   0.35444   1.000
    O12     O    0.14564   0.35445   0.35444   1.000
    Zr13    Zr   0.74997   0.74995   0.74992   1.000
    O14     O    0.85442   0.85439   0.64557   1.000
    O15     O    0.64554   0.64554   0.85432   1.000
    O16     O    0.64554   0.85434   0.64552   1.000
    O17     O    0.64560   0.85439   0.85437   1.000
    O18     O    0.85435   0.64554   0.64552   1.000
    O19     O    0.85442   0.64559   0.85437   1.000
loop_
    _geom_bond_atom_site_label_1
    _geom_bond_atom_site_label_2
    _geom_bond_distance
    _geom_bond_site_symmetry_2
    _ccdc_geom_bond_type
    Zr6    O7        2.72478      .   S
    N4     O7        3.79866  1_566   S
    Zr6    O8        2.72483      .   S
    N1     O8        3.79808  1_556   S
    Zr6    O9        2.72567      .   S
    N0     O9        3.79940  1_656   S
    Zr6    O10       2.72551      .   S
    N2     O10       3.79927  1_665   S
    Zr6    O11       2.72492      .   S
    N3     O11       3.79816  1_565   S
    Zr6    O12       2.72389      .   S
    N5     O12       3.79715  1_655   S
    Zr13   O14       2.72552      .   S
    N2     O14       3.79927      .   S
    Zr13   O15       2.72483      .   S
    N1     O15       3.79808      .   S
    Zr13   O16       2.72479      .   S
    N3     O16       3.79807      .   S
    Zr13   O17       2.72497      .   S
    N4     O17       3.79888      .   S
    Zr13   O18       2.72373      .   S
    N5     O18       3.79690      .   S
    Zr13   O19       2.72572      .   S
    N0     O19       3.79945      .   S
