# CIF file generated by openbabel 2.4.90, see http://openbabel.sf.net
data_I
_chemical_name_common ''
_cell_length_a 12.754
_cell_length_b 12.737
_cell_length_c 25.661
_cell_angle_alpha 90.004
_cell_angle_beta 90.026
_cell_angle_gamma 89.9
_space_group_name_H-M_alt 'P 1'
_space_group_name_Hall 'P 1'
loop_
    _symmetry_equiv_pos_as_xyz
    x,y,z
loop_
    _atom_site_label
    _atom_site_type_symbol
    _atom_site_fract_x
    _atom_site_fract_y
    _atom_site_fract_z
    _atom_site_occupancy
    Lv0     Lv   0.07055   0.74893   0.75003   1.000
    Lv1     Lv   0.42858   0.75097   0.75053   1.000
    Lv2     Lv   0.57134   0.24902   0.24943   1.000
    Lv3     Lv   0.24978   0.93100   0.24939   1.000
    Lv4     Lv   0.24954   0.56980   0.25059   1.000
    Lv5     Lv   0.92939   0.25109   0.24991   1.000
    Lv6     Lv   0.75043   0.43017   0.74939   1.000
    Lv7     Lv   0.75016   0.06903   0.75058   1.000
