# CIF file generated by openbabel 2.4.90, see http://openbabel.sf.net
data_I
_chemical_name_common ''
_cell_length_a 12.754
_cell_length_b 12.737
_cell_length_c 25.661
_cell_angle_alpha 90.004
_cell_angle_beta 90.026
_cell_angle_gamma 89.9
_space_group_name_H-M_alt 'P 1'
_space_group_name_Hall 'P 1'
loop_
    _symmetry_equiv_pos_as_xyz
    x,y,z
loop_
    _atom_site_label
    _atom_site_type_symbol
    _atom_site_fract_x
    _atom_site_fract_y
    _atom_site_fract_z
    _atom_site_occupancy
    H0      H    0.05793   0.92991   0.23195   1.000
    H1      H    0.18514   0.93423   0.15803   1.000
    H2      H    0.44139   0.57137   0.23315   1.000
    H3      H    0.31400   0.56769   0.15922   1.000
    H4      H    0.57202   0.05694   0.23198   1.000
    H5      H    0.56773   0.18441   0.15800   1.000
    H6      H    0.92773   0.44351   0.23339   1.000
    H7      H    0.93123   0.31749   0.15885   1.000
    H8      H    0.44165   0.92857   0.26684   1.000
    H9      H    0.31440   0.93142   0.34076   1.000
    H10     H    0.05773   0.57186   0.26803   1.000
    H11     H    0.18507   0.56817   0.34196   1.000
    H12     H    0.92759   0.05867   0.26644   1.000
    H13     H    0.93100   0.18466   0.34097   1.000
    H14     H    0.57409   0.44109   0.26687   1.000
    H15     H    0.57135   0.31366   0.34081   1.000
    H16     H    0.94201   0.07019   0.76802   1.000
    H17     H    0.81481   0.06587   0.84194   1.000
    H18     H    0.55858   0.42873   0.76685   1.000
    H19     H    0.68597   0.43241   0.84078   1.000
    H20     H    0.42789   0.94305   0.76800   1.000
    H21     H    0.43212   0.81558   0.84190   1.000
    H22     H    0.07227   0.55650   0.76656   1.000
    H23     H    0.06876   0.68251   0.84110   1.000
    H24     H    0.55829   0.07139   0.73314   1.000
    H25     H    0.68552   0.06855   0.65921   1.000
    H26     H    0.94225   0.42797   0.73190   1.000
    H27     H    0.81491   0.43166   0.65804   1.000
    H28     H    0.07229   0.94134   0.73352   1.000
    H29     H    0.06889   0.81536   0.65898   1.000
    H30     H    0.42586   0.55890   0.73310   1.000
    H31     H    0.42863   0.68633   0.65910   1.000
    C32     C    0.17822   0.93068   0.29092   1.000
    C33     C    0.14199   0.93045   0.23928   1.000
    C34     C    0.21292   0.93257   0.19814   1.000
    C35     C    0.32115   0.56969   0.29210   1.000
    C36     C    0.35732   0.57060   0.24049   1.000
    C37     C    0.28630   0.56888   0.19933   1.000
    C38     C    0.57169   0.17730   0.29098   1.000
    C39     C    0.57169   0.14112   0.23933   1.000
    C40     C    0.56958   0.21219   0.19818   1.000
    C41     C    0.92951   0.32194   0.29179   1.000
    C42     C    0.92853   0.35920   0.24033   1.000
    C43     C    0.93017   0.28893   0.19883   1.000
    C44     C    0.32131   0.93152   0.20785   1.000
    C45     C    0.35757   0.92968   0.25948   1.000
    C46     C    0.28662   0.93099   0.30065   1.000
    C47     C    0.17792   0.56971   0.20906   1.000
    C48     C    0.14178   0.57090   0.26069   1.000
    C49     C    0.21277   0.56912   0.30185   1.000
    C50     C    0.92963   0.18023   0.20804   1.000
    C51     C    0.92841   0.14299   0.25950   1.000
    C52     C    0.93011   0.21324   0.30100   1.000
    C53     C    0.57080   0.32073   0.20788   1.000
    C54     C    0.57286   0.35692   0.25953   1.000
    C55     C    0.57160   0.28584   0.30070   1.000
    C56     C    0.82171   0.06935   0.70905   1.000
    C57     C    0.85795   0.06962   0.76069   1.000
    C58     C    0.78703   0.06750   0.80183   1.000
    C59     C    0.67883   0.43027   0.70787   1.000
    C60     C    0.64265   0.42946   0.75950   1.000
    C61     C    0.71367   0.43116   0.80060   1.000
    C62     C    0.42826   0.82269   0.70900   1.000
    C63     C    0.42822   0.85887   0.76065   1.000
    C64     C    0.43031   0.78779   0.80180   1.000
    C65     C    0.07041   0.67807   0.70816   1.000
    C66     C    0.07145   0.64081   0.75962   1.000
    C67     C    0.06979   0.71107   0.80110   1.000
    C68     C    0.67863   0.06851   0.79212   1.000
    C69     C    0.64236   0.07031   0.74049   1.000
    C70     C    0.71332   0.06901   0.69930   1.000
    C71     C    0.82205   0.43027   0.79093   1.000
    C72     C    0.85819   0.42899   0.73930   1.000
    C73     C    0.78720   0.43079   0.69815   1.000
    C74     C    0.07033   0.81978   0.79190   1.000
    C75     C    0.07149   0.85703   0.74040   1.000
    C76     C    0.06982   0.78678   0.69895   1.000
    C77     C    0.42911   0.67926   0.79209   1.000
    C78     C    0.42708   0.64307   0.74044   1.000
    C79     C    0.42835   0.71415   0.69927   1.000
loop_
    _geom_bond_atom_site_label_1
    _geom_bond_atom_site_label_2
    _geom_bond_distance
    _geom_bond_site_symmetry_2
    _ccdc_geom_bond_type
    H5     C40       1.09034      .   S
    H1     C34       1.08856      .   S
    H7     C43       1.08862      .   S
    H3     C37       1.08847      .   S
    C34    C44       1.40464      .   S
    C34    C33       1.39085      .   S
    C40    C53       1.40471      .   S
    C40    C39       1.39118      .   S
    C43    C50       1.40460      .   S
    C43    C42       1.39116      .   S
    C37    C47       1.40471      .   S
    C37    C36       1.39135      .   S
    C44    C45       1.40327      .   S
    C53    C54       1.40348      .   S
    C50    C51       1.40329      .   S
    C47    C48       1.40305      .   S
    H0     C33       1.08851      .   S
    H4     C39       1.08860      .   S
    H2     C36       1.08873      .   S
    H6     C42       1.08863      .   S
    C33    C32       1.40319      .   S
    C39    C38       1.40322      .   S
    C42    C41       1.40327      .   S
    C36    C35       1.40269      .   S
    C45    H8        1.08877      .   S
    C45    C46       1.39149      .   S
    C51    H12       1.08862      .   S
    C51    C52       1.39108      .   S
    C54    H14       1.08871      .   S
    C54    C55       1.39143      .   S
    C48    H10       1.08859      .   S
    C48    C49       1.39104      .   S
    C32    C46       1.40472      .   S
    C38    C55       1.40478      .   S
    C41    C52       1.40464      .   S
    C35    C49       1.40479      .   S
    C46    H9        1.08843      .   S
    C55    H15       1.08853      .   S
    C52    H13       1.08839      .   S
    C49    H11       1.08844      .   S
    H27    C73       1.08844      .   S
    H29    C76       1.08842      .   S
    H31    C79       1.08998      .   S
    H25    C70       1.08796      .   S
    C73    C59       1.40467      .   S
    C73    C72       1.39081      .   S
    C76    C65       1.40462      .   S
    C76    C75       1.39010      .   S
    C79    C62       1.40481      .   S
    C79    C78       1.39149      .   S
    C70    C56       1.40483      .   S
    C70    C69       1.39184      .   S
    C59    C60       1.40318      .   S
    C65    C66       1.40329      .   S
    C62    C63       1.40319      .   S
    C56    C57       1.40322      .   S
    H26    C72       1.08888      .   S
    H30    C78       1.08869      .   S
    H24    C69       1.08875      .   S
    H28    C75       1.08838      .   S
    C72    C71       1.40307      .   S
    C75    C74       1.40427      .   S
    C78    C77       1.40345      .   S
    C69    C68       1.40330      .   S
    C60    H18       1.08878      .   S
    C60    C61       1.39016      .   S
    C66    H22       1.08865      .   S
    C66    C67       1.39072      .   S
    C63    H20       1.08859      .   S
    C63    C64       1.39120      .   S
    C57    H16       1.08853      .   S
    C57    C58       1.39079      .   S
    C71    C61       1.40444      .   S
    C74    C67       1.40458      .   S
    C77    C64       1.40475      .   S
    C68    C58       1.40463      .   S
    C61    H19       1.09018      .   S
    C67    H23       1.08912      .   S
    C64    H21       1.08840      .   S
    C58    H17       1.08858      .   S
