# CIF file generated by openbabel 2.4.90, see http://openbabel.sf.net
data_I
_chemical_name_common ''
_cell_length_a 12.754
_cell_length_b 12.737
_cell_length_c 25.661
_cell_angle_alpha 90.004
_cell_angle_beta 90.026
_cell_angle_gamma 89.9
_space_group_name_H-M_alt 'P 1'
_space_group_name_Hall 'P 1'
loop_
    _symmetry_equiv_pos_as_xyz
    x,y,z
loop_
    _atom_site_label
    _atom_site_type_symbol
    _atom_site_fract_x
    _atom_site_fract_y
    _atom_site_fract_z
    _atom_site_occupancy
    H0      H    0.27953   0.94656   0.46568   1.000
    H1      H    0.26400   0.02166   0.64937   1.000
    H2      H    0.12559   0.04607   0.64895   1.000
    H3      H    0.22087   0.55714   0.46570   1.000
    H4      H    0.23473   0.47860   0.64910   1.000
    H5      H    0.37298   0.45306   0.64874   1.000
    H6      H    0.55950   0.27861   0.46562   1.000
    H7      H    0.47948   0.26527   0.64879   1.000
    H8      H    0.45294   0.12712   0.64840   1.000
    H9      H    0.94169   0.22087   0.46572   1.000
    H10     H    0.02018   0.23422   0.64924   1.000
    H11     H    0.04595   0.37246   0.64876   1.000
    H12     H    0.22088   0.94296   0.03428   1.000
    H13     H    0.23450   0.01970   0.85070   1.000
    H14     H    0.37255   0.04582   0.85114   1.000
    H15     H    0.27899   0.55723   0.03410   1.000
    H16     H    0.26412   0.47907   0.85083   1.000
    H17     H    0.12612   0.45262   0.85131   1.000
    H18     H    0.94290   0.27910   0.03378   1.000
    H19     H    0.02010   0.26418   0.85024   1.000
    H20     H    0.04556   0.12576   0.85085   1.000
    H21     H    0.55933   0.22088   0.03398   1.000
    H22     H    0.47893   0.23448   0.85080   1.000
    H23     H    0.45264   0.37276   0.85125   1.000
    H24     H    0.72042   0.05338   0.53430   1.000
    H25     H    0.73596   0.97840   0.35061   1.000
    H26     H    0.87437   0.95400   0.35102   1.000
    H27     H    0.77913   0.44283   0.53426   1.000
    H28     H    0.76523   0.52140   0.35087   1.000
    H29     H    0.62698   0.54695   0.35124   1.000
    H30     H    0.44050   0.72143   0.53437   1.000
    H31     H    0.52050   0.73475   0.35119   1.000
    H32     H    0.54703   0.87290   0.35157   1.000
    H33     H    0.05838   0.77911   0.53421   1.000
    H34     H    0.97974   0.76581   0.35071   1.000
    H35     H    0.95397   0.62757   0.35119   1.000
    H36     H    0.77911   0.05685   0.96566   1.000
    H37     H    0.76555   0.97997   0.14923   1.000
    H38     H    0.62749   0.95389   0.14879   1.000
    H39     H    0.72107   0.44237   0.96592   1.000
    H40     H    0.73591   0.52075   0.14920   1.000
    H41     H    0.87391   0.54726   0.14871   1.000
    H42     H    0.05709   0.72085   0.96617   1.000
    H43     H    0.97977   0.73573   0.14970   1.000
    H44     H    0.95433   0.87415   0.14909   1.000
    H45     H    0.44055   0.77910   0.96602   1.000
    H46     H    0.52103   0.76547   0.14919   1.000
    H47     H    0.54737   0.62720   0.14873   1.000
    C48     C    0.18964   0.00323   0.57898   1.000
    C49     C    0.23381   0.96581   0.50004   1.000
    N50     N    0.30505   0.47369   0.62979   1.000
    N51     N    0.50056   0.10079   0.55006   1.000
    N52     N    0.52572   0.13039   0.49906   1.000
    N53     N    0.52257   0.27507   0.54792   1.000
    C54     C    0.10137   0.92943   0.33492   1.000
    C55     C    0.30941   0.49685   0.57884   1.000
    C56     C    0.26614   0.53672   0.50007   1.000
    C57     C    0.39762   0.57067   0.33630   1.000
    C58     C    0.49774   0.19037   0.57856   1.000
    C59     C    0.53857   0.23336   0.49989   1.000
    C60     C    0.57270   0.10026   0.33499   1.000
    C61     C    0.00191   0.30912   0.57890   1.000
    C62     C    0.96217   0.26606   0.50009   1.000
    C63     C    0.92902   0.39790   0.33623   1.000
    C64     C    0.30917   0.00244   0.92107   1.000
    C65     C    0.26606   0.96317   0.99990   1.000
    C66     C    0.39774   0.93092   0.16368   1.000
    C67     C    0.18979   0.49675   0.92119   1.000
    C68     C    0.23349   0.53671   0.99988   1.000
    O69     O    0.13832   0.95165   0.38063   1.000
    O70     O    0.00635   0.90612   0.32681   1.000
    O71     O    0.36057   0.54728   0.38181   1.000
    O72     O    0.49260   0.59508   0.32870   1.000
    O73     O    0.55081   0.13735   0.38073   1.000
    C74     C    0.10100   0.57078   0.16505   1.000
    C75     C    0.00184   0.18968   0.92063   1.000
    C76     C    0.96294   0.23356   0.99945   1.000
    C77     C    0.92909   0.10423   0.16363   1.000
    C78     C    0.49716   0.30929   0.92107   1.000
    C79     C    0.53830   0.26614   0.99970   1.000
    C80     C    0.57124   0.39739   0.16372   1.000
    C81     C    0.81033   0.99681   0.42100   1.000
    C82     C    0.76615   0.03415   0.49995   1.000
    C83     C    0.89857   0.07060   0.66500   1.000
    C84     C    0.69057   0.50315   0.42110   1.000
    C85     C    0.73385   0.46326   0.49990   1.000
    C86     C    0.60236   0.42933   0.66369   1.000
    C87     C    0.50223   0.80966   0.42143   1.000
    C88     C    0.46142   0.76667   0.50010   1.000
    C89     C    0.42726   0.89974   0.66498   1.000
    C90     C    0.99804   0.69090   0.42104   1.000
    C91     C    0.03786   0.73394   0.49980   1.000
    C92     C    0.07092   0.60211   0.66373   1.000
    C93     C    0.69088   0.99723   0.07886   1.000
    C94     C    0.73394   0.03664   0.00000   1.000
    C95     C    0.60222   0.06910   0.83630   1.000
    C96     C    0.81025   0.50304   0.07884   1.000
    C97     C    0.76656   0.46298   0.00000   1.000
    C98     C    0.89898   0.42922   0.83495   1.000
    C99     C    0.99806   0.81024   0.07930   1.000
    C100    C    0.03703   0.76638   0.00000   1.000
    C101    C    0.07087   0.89577   0.83633   1.000
    C102    C    0.50282   0.69068   0.07891   1.000
    C103    C    0.46162   0.73383   0.00000   1.000
    C104    C    0.42867   0.60259   0.83625   1.000
    N105    N    0.10039   0.00038   0.55028   1.000
    N106    N    0.13080   0.97736   0.49914   1.000
    N107    N    0.27486   0.98064   0.54828   1.000
    N108    N    0.19348   0.02474   0.63010   1.000
    N109    N    0.39889   0.49960   0.55036   1.000
    N110    N    0.36909   0.52425   0.49932   1.000
    N111    N    0.22456   0.52105   0.54814   1.000
    N112    N    0.47370   0.19499   0.62938   1.000
    N113    N    0.99979   0.39871   0.55036   1.000
    N114    N    0.97527   0.36901   0.49930   1.000
    N115    N    0.97730   0.22436   0.54820   1.000
    N116    N    0.02488   0.30459   0.62987   1.000
    N117    N    0.39863   0.00019   0.94960   1.000
    N118    N    0.36892   0.97598   0.00071   1.000
    N119    N    0.22444   0.97821   0.95176   1.000
    N120    N    0.30468   0.02537   0.87009   1.000
    N121    N    0.10052   0.49924   0.94985   1.000
    N122    N    0.13065   0.52393   0.00085   1.000
    N123    N    0.27474   0.52123   0.95173   1.000
    N124    N    0.19400   0.47344   0.87026   1.000
    N125    N    0.99964   0.10030   0.94931   1.000
    N126    N    0.97566   0.13055   0.00037   1.000
    N127    N    0.97782   0.27481   0.95124   1.000
    N128    N    0.02424   0.19375   0.86961   1.000
    N129    N    0.49989   0.39890   0.94957   1.000
    N130    N    0.52536   0.36916   0.00054   1.000
    N131    N    0.52221   0.22443   0.95166   1.000
    N132    N    0.47305   0.30472   0.87023   1.000
    N133    N    0.89958   0.99963   0.44970   1.000
    N134    N    0.86916   0.02261   0.50084   1.000
    N135    N    0.72511   0.01937   0.45171   1.000
    N136    N    0.80649   0.97537   0.36987   1.000
    N137    N    0.60110   0.50042   0.44963   1.000
    N138    N    0.63091   0.47575   0.50067   1.000
    N139    N    0.77543   0.47893   0.45183   1.000
    N140    N    0.69492   0.52630   0.37019   1.000
    N141    N    0.49940   0.89925   0.44992   1.000
    N142    N    0.47426   0.86964   0.50092   1.000
    N143    N    0.47742   0.72496   0.45207   1.000
    N144    N    0.52626   0.80504   0.37060   1.000
    N145    N    0.00000   0.60130   0.44957   1.000
    N146    N    0.02477   0.63099   0.50063   1.000
    N147    N    0.02268   0.77565   0.45174   1.000
    N148    N    0.97501   0.69545   0.37008   1.000
    N149    N    0.60140   0.99962   0.05033   1.000
    N150    N    0.63107   0.02390   0.99925   1.000
    N151    N    0.77559   0.02148   0.04817   1.000
    N152    N    0.69541   0.97404   0.12981   1.000
    N153    N    0.89951   0.50061   0.05018   1.000
    N154    N    0.86939   0.47584   0.99918   1.000
    N155    N    0.72531   0.47848   0.04831   1.000
    N156    N    0.80605   0.52634   0.12978   1.000
    N157    N    0.00000   0.89963   0.05065   1.000
    N158    N    0.02434   0.86939   0.99959   1.000
    N159    N    0.02210   0.72511   0.04870   1.000
    N160    N    0.97554   0.80614   0.13032   1.000
    N161    N    0.50015   0.60108   0.05040   1.000
    N162    N    0.47464   0.63083   0.99944   1.000
    N163    N    0.47770   0.77553   0.04834   1.000
    N164    N    0.52692   0.69524   0.12976   1.000
    O165    O    0.59547   0.00491   0.32680   1.000
    O166    O    0.95131   0.36003   0.38174   1.000
    O167    O    0.90628   0.49352   0.32870   1.000
    O168    O    0.36056   0.95463   0.11820   1.000
    O169    O    0.49282   0.90653   0.17125   1.000
    O170    O    0.13769   0.54715   0.11947   1.000
    O171    O    0.00618   0.59538   0.17306   1.000
    O172    O    0.95112   0.14196   0.11807   1.000
    O173    O    0.90636   0.00871   0.17115   1.000
    O174    O    0.54757   0.36037   0.11821   1.000
    O175    O    0.59541   0.49254   0.17135   1.000
    O176    O    0.86163   0.04839   0.61934   1.000
    O177    O    0.99358   0.09394   0.67310   1.000
    O178    O    0.63943   0.45274   0.61818   1.000
    O179    O    0.50738   0.40495   0.67129   1.000
    O180    O    0.44918   0.86267   0.61925   1.000
    O181    O    0.40451   0.99510   0.67313   1.000
    O182    O    0.04869   0.63998   0.61821   1.000
    O183    O    0.09370   0.50651   0.67120   1.000
    O184    O    0.63941   0.04542   0.88178   1.000
    O185    O    0.50713   0.09348   0.82874   1.000
    O186    O    0.86230   0.45288   0.88053   1.000
    O187    O    0.99380   0.40463   0.82694   1.000
    O188    O    0.04882   0.85804   0.88188   1.000
    O189    O    0.09360   0.99129   0.82882   1.000
    O190    O    0.45226   0.63964   0.88170   1.000
    O191    O    0.40456   0.50743   0.82863   1.000
loop_
    _geom_bond_atom_site_label_1
    _geom_bond_atom_site_label_2
    _geom_bond_distance
    _geom_bond_site_symmetry_2
    _ccdc_geom_bond_type
    C100   N159      1.36930      .   S
    C100   H42       1.07470  1_554   S
    C100   N158      1.32171  1_554   S
    C97    N155      1.36119      .   S
    C97    H39       1.08184  1_554   S
    C97    N154      1.32213  1_554   S
    C103   N163      1.36485      .   S
    C103   H45       1.07899  1_554   S
    C103   N162      1.32227  1_554   S
    C94    N151      1.35887      .   S
    C94    H36       1.08425  1_554   S
    C94    N150      1.32237  1_554   S
    N126   N125      1.39951  1_554   S
    N126   C76       1.32189  1_554   S
    N130   N129      1.39963  1_554   S
    N130   C79       1.32238  1_554   S
    N118   N117      1.39987  1_564   S
    N118   C65       1.32240  1_554   S
    N122   N121      1.39969  1_554   S
    N122   C68       1.32222  1_554   S
    H18    C76       1.08513  1_554   S
    H21    C79       1.08508  1_554   S
    H15    C68       1.08451  1_554   S
    H12    C65       1.08516  1_554   S
    N151   C93       1.37299  1_545   S
    N155   C96       1.37319      .   S
    N163   C102      1.37285      .   S
    N159   C99       1.37295  1_455   S
    N153   C96       1.35586      .   S
    N153   N154      1.39990  1_554   S
    N149   C93       1.35588      .   S
    N149   N150      1.39926  1_564   S
    N161   C102      1.35598      .   S
    N161   N162      1.39954  1_554   S
    N157   C99       1.35566  1_455   S
    N157   N158      1.40050  1_554   S
    C96    N156      1.34149      .   S
    C93    N152      1.34159      .   S
    C102   N164      1.34172      .   S
    C99    N160      1.34151      .   S
    O172   C77       1.29520      .   S
    O168   C66       1.29506      .   S
    O174   C80       1.29518      .   S
    O170   C74       1.29519      .   S
    N164   H47       1.02717      .   S
    N164   H46       1.02677      .   S
    N156   H41       1.02787      .   S
    N156   H40       1.02673      .   S
    N152   H38       1.02699      .   S
    N152   H37       1.02660      .   S
    N160   H44       1.02703      .   S
    N160   H43       1.02688      .   S
    C77    O173      1.26599      .   S
    C66    O169      1.26616      .   S
    C80    O175      1.26620      .   S
    C74    O171      1.26564      .   S
    O165   C60       1.26582      .   S
    O70    C54       1.26529      .   S
    O72    C57       1.26629      .   S
    O167   C63       1.26630      .   S
    C54    O69       1.29536      .   S
    C60    O73       1.29558      .   S
    C63    O166      1.29481      .   S
    C57    O71       1.29498      .   S
    H25    N136      1.02682      .   S
    H34    N148      1.02669      .   S
    H28    N140      1.02668      .   S
    H26    N136      1.02818      .   S
    H35    N148      1.02715      .   S
    H31    N144      1.02719      .   S
    H29    N140      1.02726      .   S
    H32    N144      1.02801      .   S
    N136   C81       1.34104      .   S
    N148   C90       1.34137      .   S
    N140   C84       1.34048      .   S
    N144   C87       1.34128      .   S
    C81    N133      1.35599      .   S
    C81    N135      1.37281  1_565   S
    C90    N145      1.35607  1_655   S
    C90    N147      1.37312  1_655   S
    C84    N137      1.35655      .   S
    C84    N139      1.37351      .   S
    C87    N141      1.35562      .   S
    C87    N143      1.37245      .   S
    N145   N146      1.39981      .   S
    N137   N138      1.39926      .   S
    N133   N134      1.39937  1_565   S
    N141   N142      1.39950      .   S
    N135   C82       1.35703      .   S
    N147   C91       1.35656      .   S
    N139   C85       1.35779      .   S
    N143   C88       1.35747      .   S
    H6     C59       1.08514      .   S
    H0     C49       1.08511      .   S
    H3     C56       1.08533      .   S
    H9     C62       1.08517      .   S
    N52    C59       1.32217      .   S
    N52    N51       1.39954      .   S
    N106   C49       1.32203      .   S
    N106   N105      1.39947  1_565   S
    N114   C62       1.32235      .   S
    N114   N113      1.39915      .   S
    N110   C56       1.32238      .   S
    N110   N109      1.39918      .   S
    C91    N146      1.32235      .   S
    C91    H33       1.08604      .   S
    C59    N53       1.35746      .   S
    C85    N138      1.32238      .   S
    C85    H27       1.08523      .   S
    C82    N134      1.32203      .   S
    C82    H24       1.08485      .   S
    C49    N107      1.35713      .   S
    C56    N111      1.35785      .   S
    C62    N115      1.35756      .   S
    C88    N142      1.32217      .   S
    C88    H30       1.08509      .   S
    N53    C58       1.37252      .   S
    N111   C55       1.37292      .   S
    N115   C61       1.37311  1_655   S
    N107   C48       1.37272  1_565   S
    N51    C58       1.35571      .   S
    N105   C48       1.35602      .   S
    N113   C61       1.35618  1_655   S
    N109   C55       1.35596      .   S
    C58    N112      1.34105      .   S
    C55    N50       1.34153      .   S
    C61    N116      1.34143      .   S
    C48    N108      1.34097      .   S
    O178   C86       1.29508      .   S
    O182   C92       1.29491      .   S
    O180   C89       1.29535      .   S
    O176   C83       1.29412      .   S
    N112   H8        1.02790      .   S
    N112   H7        1.02715      .   S
    N50    H5        1.02716      .   S
    N50    H4        1.02664      .   S
    N116   H11       1.02724      .   S
    N116   H10       1.02671      .   S
    N108   H2        1.02812      .   S
    N108   H1        1.02685      .   S
    C86    O179      1.26630      .   S
    C92    O183      1.26603      .   S
    C89    O181      1.26564      .   S
    C83    O177      1.26521      .   S
    O187   C98       1.26562      .   S
    O191   C104      1.26614      .   S
    O185   C95       1.26615      .   S
    O189   C101      1.26602      .   S
    C98    O186      1.29524      .   S
    C104   O190      1.29368      .   S
    C95    O184      1.29506      .   S
    C101   O188      1.29506      .   S
    H19    N128      1.02685      .   S
    H13    N120      1.02657      .   S
    H22    N132      1.02684      .   S
    H16    N124      1.02682      .   S
    H20    N128      1.02709      .   S
    H14    N120      1.02703      .   S
    H23    N132      1.02716      .   S
    H17    N124      1.02796      .   S
    N128   C75       1.34117      .   S
    N120   C64       1.34159      .   S
    N132   C78       1.34150      .   S
    N124   C67       1.34126      .   S
    C75    N125      1.35604  1_455   S
    C75    N127      1.37311  1_455   S
    C78    N129      1.35602      .   S
    C78    N131      1.37298      .   S
    C64    N117      1.35560      .   S
    C64    N119      1.37305  1_545   S
    C67    N121      1.35597      .   S
    C67    N123      1.37317      .   S
    N127   C76       1.35765      .   S
    N131   C79       1.35795      .   S
    N123   C68       1.35740      .   S
    N119   C65       1.35781      .   S
