# CIF file generated by openbabel 2.4.90, see http://openbabel.sf.net
data_I
_chemical_name_common ''
_cell_length_a 12.754
_cell_length_b 12.737
_cell_length_c 25.661
_cell_angle_alpha 90.004
_cell_angle_beta 90.026
_cell_angle_gamma 89.9
_space_group_name_H-M_alt 'P 1'
_space_group_name_Hall 'P 1'
loop_
    _symmetry_equiv_pos_as_xyz
    x,y,z
loop_
    _atom_site_label
    _atom_site_type_symbol
    _atom_site_fract_x
    _atom_site_fract_y
    _atom_site_fract_z
    _atom_site_occupancy
    Zr0     Zr   0.03910   0.93287   0.43804   1.000
    Zr1     Zr   0.46213   0.56831   0.43830   1.000
    Zr2     Zr   0.56874   0.03679   0.43799   1.000
    Zr3     Zr   0.93261   0.46237   0.43817   1.000
    Zr4     Zr   0.46224   0.93301   0.06182   1.000
    Zr5     Zr   0.03855   0.56829   0.06199   1.000
    Zr6     Zr   0.93265   0.03902   0.06188   1.000
    Zr7     Zr   0.56860   0.46224   0.06170   1.000
    Zr8     Zr   0.96086   0.06715   0.56193   1.000
    Zr9     Zr   0.53787   0.43172   0.56168   1.000
    Zr10    Zr   0.43124   0.96324   0.56199   1.000
    Zr11    Zr   0.06738   0.53765   0.56179   1.000
    Zr12    Zr   0.53774   0.06698   0.93817   1.000
    Zr13    Zr   0.96144   0.43168   0.93799   1.000
    Zr14    Zr   0.06735   0.96093   0.93808   1.000
    Zr15    Zr   0.43140   0.53776   0.93820   1.000
    Zr16    Zr   0.27953   0.94656   0.46568   1.000
    Zr17    Zr   0.26400   0.02166   0.64937   1.000
    Zr18    Zr   0.12559   0.04607   0.64895   1.000
    Zr19    Zr   0.22087   0.55714   0.46570   1.000
    Zr20    Zr   0.23473   0.47860   0.64910   1.000
    Zr21    Zr   0.37298   0.45306   0.64874   1.000
    Zr22    Zr   0.55950   0.27861   0.46562   1.000
    Zr23    Zr   0.47948   0.26527   0.64879   1.000
    Zr24    Zr   0.45294   0.12712   0.64840   1.000
    Zr25    Zr   0.94169   0.22087   0.46572   1.000
    Zr26    Zr   0.02018   0.23422   0.64924   1.000
    Zr27    Zr   0.04595   0.37246   0.64876   1.000
    Zr28    Zr   0.22088   0.94296   0.03428   1.000
    Zr29    Zr   0.23450   0.01970   0.85070   1.000
    Zr30    Zr   0.37255   0.04582   0.85114   1.000
    Zr31    Zr   0.27899   0.55723   0.03410   1.000
    Zr32    Zr   0.26412   0.47907   0.85083   1.000
    Zr33    Zr   0.12612   0.45262   0.85131   1.000
    Zr34    Zr   0.94290   0.27910   0.03378   1.000
    Zr35    Zr   0.02010   0.26418   0.85024   1.000
    Zr36    Zr   0.04556   0.12576   0.85085   1.000
    Zr37    Zr   0.55933   0.22088   0.03398   1.000
    Zr38    Zr   0.47893   0.23448   0.85080   1.000
    Zr39    Zr   0.45264   0.37276   0.85125   1.000
    Zr40    Zr   0.72042   0.05338   0.53430   1.000
    Zr41    Zr   0.73596   0.97840   0.35061   1.000
    Zr42    Zr   0.87437   0.95400   0.35102   1.000
    Zr43    Zr   0.77913   0.44283   0.53426   1.000
    Zr44    Zr   0.76523   0.52140   0.35087   1.000
    Zr45    Zr   0.62698   0.54695   0.35124   1.000
    Zr46    Zr   0.44050   0.72143   0.53437   1.000
    Zr47    Zr   0.52050   0.73475   0.35119   1.000
    Zr48    Zr   0.54703   0.87290   0.35157   1.000
    Zr49    Zr   0.05838   0.77911   0.53421   1.000
    Zr50    Zr   0.97974   0.76581   0.35071   1.000
    Zr51    Zr   0.95397   0.62757   0.35119   1.000
    Zr52    Zr   0.77911   0.05685   0.96566   1.000
    Zr53    Zr   0.76555   0.97997   0.14923   1.000
    Zr54    Zr   0.62749   0.95389   0.14879   1.000
    Zr55    Zr   0.72107   0.44237   0.96592   1.000
    Zr56    Zr   0.73591   0.52075   0.14920   1.000
    Zr57    Zr   0.87391   0.54726   0.14871   1.000
    Zr58    Zr   0.05709   0.72085   0.96617   1.000
    Zr59    Zr   0.97977   0.73573   0.14970   1.000
    Zr60    Zr   0.95433   0.87415   0.14909   1.000
    Zr61    Zr   0.44055   0.77910   0.96602   1.000
    Zr62    Zr   0.52103   0.76547   0.14919   1.000
    Zr63    Zr   0.54737   0.62720   0.14873   1.000
    Zr64    Zr   0.18964   0.00323   0.57898   1.000
    Zr65    Zr   0.23381   0.96581   0.50004   1.000
    Zr66    Zr   0.10137   0.92943   0.33492   1.000
    Zr67    Zr   0.30941   0.49685   0.57884   1.000
    Zr68    Zr   0.26614   0.53672   0.50007   1.000
    Zr69    Zr   0.39762   0.57067   0.33630   1.000
    Zr70    Zr   0.49774   0.19037   0.57856   1.000
    Zr71    Zr   0.53857   0.23336   0.49989   1.000
    Zr72    Zr   0.57270   0.10026   0.33499   1.000
    Zr73    Zr   0.00191   0.30912   0.57890   1.000
    Zr74    Zr   0.96217   0.26606   0.50009   1.000
    Zr75    Zr   0.92902   0.39790   0.33623   1.000
    Zr76    Zr   0.30917   0.00244   0.92107   1.000
    Zr77    Zr   0.26606   0.96317   0.99990   1.000
    Zr78    Zr   0.39774   0.93092   0.16368   1.000
    Zr79    Zr   0.18979   0.49675   0.92119   1.000
    Zr80    Zr   0.23349   0.53671   0.99988   1.000
    Zr81    Zr   0.10100   0.57078   0.16505   1.000
    Zr82    Zr   0.00184   0.18968   0.92063   1.000
    Zr83    Zr   0.96294   0.23356   0.99945   1.000
    Zr84    Zr   0.92909   0.10423   0.16363   1.000
    Zr85    Zr   0.49716   0.30929   0.92107   1.000
    Zr86    Zr   0.53830   0.26614   0.99970   1.000
    Zr87    Zr   0.57124   0.39739   0.16372   1.000
    Zr88    Zr   0.81033   0.99681   0.42100   1.000
    Zr89    Zr   0.76615   0.03415   0.49995   1.000
    Zr90    Zr   0.89857   0.07060   0.66500   1.000
    Zr91    Zr   0.69057   0.50315   0.42110   1.000
    Zr92    Zr   0.73385   0.46326   0.49990   1.000
    Zr93    Zr   0.60236   0.42933   0.66369   1.000
    Zr94    Zr   0.50223   0.80966   0.42143   1.000
    Zr95    Zr   0.46142   0.76667   0.50010   1.000
    Zr96    Zr   0.42726   0.89974   0.66498   1.000
    Zr97    Zr   0.99804   0.69090   0.42104   1.000
    Zr98    Zr   0.03786   0.73394   0.49980   1.000
    Zr99    Zr   0.07092   0.60211   0.66373   1.000
    Zr100   Zr   0.69088   0.99723   0.07886   1.000
    Zr101   Zr   0.73394   0.03664   0.00000   1.000
    Zr102   Zr   0.60222   0.06910   0.83630   1.000
    Zr103   Zr   0.81025   0.50304   0.07884   1.000
    Zr104   Zr   0.76656   0.46298   0.00000   1.000
    Zr105   Zr   0.89898   0.42922   0.83495   1.000
    Zr106   Zr   0.99806   0.81024   0.07930   1.000
    Zr107   Zr   0.03703   0.76638   0.00000   1.000
    Zr108   Zr   0.07087   0.89577   0.83633   1.000
    Zr109   Zr   0.50282   0.69068   0.07891   1.000
    Zr110   Zr   0.46162   0.73383   0.00000   1.000
    Zr111   Zr   0.42867   0.60259   0.83625   1.000
    Zr112   Zr   0.10039   0.00038   0.55028   1.000
    Zr113   Zr   0.13080   0.97736   0.49914   1.000
    Zr114   Zr   0.27486   0.98064   0.54828   1.000
    Zr115   Zr   0.19348   0.02474   0.63010   1.000
    Zr116   Zr   0.39889   0.49960   0.55036   1.000
    Zr117   Zr   0.36909   0.52425   0.49932   1.000
    Zr118   Zr   0.22456   0.52105   0.54814   1.000
    Zr119   Zr   0.30505   0.47369   0.62979   1.000
    Zr120   Zr   0.50056   0.10079   0.55006   1.000
    Zr121   Zr   0.52572   0.13039   0.49906   1.000
    Zr122   Zr   0.52257   0.27507   0.54792   1.000
    Zr123   Zr   0.47370   0.19499   0.62938   1.000
    Zr124   Zr   0.99979   0.39871   0.55036   1.000
    Zr125   Zr   0.97527   0.36901   0.49930   1.000
    Zr126   Zr   0.97730   0.22436   0.54820   1.000
    Zr127   Zr   0.02488   0.30459   0.62987   1.000
    Zr128   Zr   0.39863   0.00019   0.94960   1.000
    Zr129   Zr   0.36892   0.97598   0.00071   1.000
    Zr130   Zr   0.22444   0.97821   0.95176   1.000
    Zr131   Zr   0.30468   0.02537   0.87009   1.000
    Zr132   Zr   0.10052   0.49924   0.94985   1.000
    Zr133   Zr   0.13065   0.52393   0.00085   1.000
    Zr134   Zr   0.27474   0.52123   0.95173   1.000
    Zr135   Zr   0.19400   0.47344   0.87026   1.000
    Zr136   Zr   0.99964   0.10030   0.94931   1.000
    Zr137   Zr   0.97566   0.13055   0.00037   1.000
    Zr138   Zr   0.97782   0.27481   0.95124   1.000
    Zr139   Zr   0.02424   0.19375   0.86961   1.000
    Zr140   Zr   0.49989   0.39890   0.94957   1.000
    Zr141   Zr   0.52536   0.36916   0.00054   1.000
    Zr142   Zr   0.52221   0.22443   0.95166   1.000
    Zr143   Zr   0.47305   0.30472   0.87023   1.000
    Zr144   Zr   0.89958   0.99963   0.44970   1.000
    Zr145   Zr   0.86916   0.02261   0.50084   1.000
    Zr146   Zr   0.72511   0.01937   0.45171   1.000
    Zr147   Zr   0.80649   0.97537   0.36987   1.000
    Zr148   Zr   0.60110   0.50042   0.44963   1.000
    Zr149   Zr   0.63091   0.47575   0.50067   1.000
    Zr150   Zr   0.77543   0.47893   0.45183   1.000
    Zr151   Zr   0.69492   0.52630   0.37019   1.000
    Zr152   Zr   0.49940   0.89925   0.44992   1.000
    Zr153   Zr   0.47426   0.86964   0.50092   1.000
    Zr154   Zr   0.47742   0.72496   0.45207   1.000
    Zr155   Zr   0.52626   0.80504   0.37060   1.000
    Zr156   Zr   0.00000   0.60130   0.44957   1.000
    Zr157   Zr   0.02477   0.63099   0.50063   1.000
    Zr158   Zr   0.02268   0.77565   0.45174   1.000
    Zr159   Zr   0.97501   0.69545   0.37008   1.000
    Zr160   Zr   0.60140   0.99962   0.05033   1.000
    Zr161   Zr   0.63107   0.02390   0.99925   1.000
    Zr162   Zr   0.77559   0.02148   0.04817   1.000
    Zr163   Zr   0.69541   0.97404   0.12981   1.000
    Zr164   Zr   0.89951   0.50061   0.05018   1.000
    Zr165   Zr   0.86939   0.47584   0.99918   1.000
    Zr166   Zr   0.72531   0.47848   0.04831   1.000
    Zr167   Zr   0.80605   0.52634   0.12978   1.000
    Zr168   Zr   0.00000   0.89963   0.05065   1.000
    Zr169   Zr   0.02434   0.86939   0.99959   1.000
    Zr170   Zr   0.02210   0.72511   0.04870   1.000
    Zr171   Zr   0.97554   0.80614   0.13032   1.000
    Zr172   Zr   0.50015   0.60108   0.05040   1.000
    Zr173   Zr   0.47464   0.63083   0.99944   1.000
    Zr174   Zr   0.47770   0.77553   0.04834   1.000
    Zr175   Zr   0.52692   0.69524   0.12976   1.000
    Zr176   Zr   0.13832   0.95165   0.38063   1.000
    Zr177   Zr   0.00635   0.90612   0.32681   1.000
    Zr178   Zr   0.36057   0.54728   0.38181   1.000
    Zr179   Zr   0.49260   0.59508   0.32870   1.000
    Zr180   Zr   0.55081   0.13735   0.38073   1.000
    Zr181   Zr   0.59547   0.00491   0.32680   1.000
    Zr182   Zr   0.95131   0.36003   0.38174   1.000
    Zr183   Zr   0.90628   0.49352   0.32870   1.000
    Zr184   Zr   0.36056   0.95463   0.11820   1.000
    Zr185   Zr   0.49282   0.90653   0.17125   1.000
    Zr186   Zr   0.13769   0.54715   0.11947   1.000
    Zr187   Zr   0.00618   0.59538   0.17306   1.000
    Zr188   Zr   0.95112   0.14196   0.11807   1.000
    Zr189   Zr   0.90636   0.00871   0.17115   1.000
    Zr190   Zr   0.54757   0.36037   0.11821   1.000
    Zr191   Zr   0.59541   0.49254   0.17135   1.000
    Zr192   Zr   0.86163   0.04839   0.61934   1.000
    Zr193   Zr   0.99358   0.09394   0.67310   1.000
    Zr194   Zr   0.63943   0.45274   0.61818   1.000
    Zr195   Zr   0.50738   0.40495   0.67129   1.000
    Zr196   Zr   0.44918   0.86267   0.61925   1.000
    Zr197   Zr   0.40451   0.99510   0.67313   1.000
    Zr198   Zr   0.04869   0.63998   0.61821   1.000
    Zr199   Zr   0.09370   0.50651   0.67120   1.000
    Zr200   Zr   0.63941   0.04542   0.88178   1.000
    Zr201   Zr   0.50713   0.09348   0.82874   1.000
    Zr202   Zr   0.86230   0.45288   0.88053   1.000
    Zr203   Zr   0.99380   0.40463   0.82694   1.000
    Zr204   Zr   0.04882   0.85804   0.88188   1.000
    Zr205   Zr   0.09360   0.99129   0.82882   1.000
    Zr206   Zr   0.45226   0.63964   0.88170   1.000
    Zr207   Zr   0.40456   0.50743   0.82863   1.000
    O208    O    0.02957   0.74575   0.02435   1.000
    O209    O    0.04706   0.74362   0.98308   1.000
    O210    O    0.03069   0.81789   0.99979   1.000
    O211    O    0.74593   0.47073   0.02415   1.000
    O212    O    0.74381   0.45267   0.98296   1.000
    O213    O    0.81797   0.46941   0.99959   1.000
    O214    O    0.46966   0.75468   0.02417   1.000
    O215    O    0.45109   0.75647   0.98301   1.000
    O216    O    0.46813   0.68233   0.99972   1.000
    O217    O    0.75477   0.02906   0.02408   1.000
    O218    O    0.75652   0.04675   0.98283   1.000
    O219    O    0.68251   0.03027   0.99962   1.000
    O220    O    0.95415   0.08479   0.03112   1.000
    O221    O    0.98765   0.11543   0.97484   1.000
    O222    O    0.96930   0.18205   0.99991   1.000
    O223    O    0.54698   0.41570   0.03112   1.000
    O224    O    0.51262   0.38403   0.97505   1.000
    O225    O    0.53183   0.31765   0.00012   1.000
    O226    O    0.41558   0.95449   0.03126   1.000
    O227    O    0.38377   0.98808   0.97515   1.000
    O228    O    0.31749   0.96957   0.00030   1.000
    O229    O    0.08460   0.54611   0.03142   1.000
    O230    O    0.11558   0.51159   0.97535   1.000
    O231    O    0.18207   0.53032   0.00036   1.000
    O232    O    0.95292   0.25633   0.01661   1.000
    O233    O    0.54882   0.24351   0.01684   1.000
    O234    O    0.25624   0.54697   0.01699   1.000
    O235    O    0.24347   0.95306   0.01709   1.000
    O236    O    0.85412   0.03025   0.05502   1.000
    O237    O    0.73324   0.00935   0.06352   1.000
    O238    O    0.64695   0.47036   0.05500   1.000
    O239    O    0.76778   0.49076   0.06357   1.000
    O240    O    0.46997   0.85427   0.05508   1.000
    O241    O    0.49026   0.73310   0.06362   1.000
    O242    O    0.03032   0.64671   0.05534   1.000
    O243    O    0.01008   0.76768   0.06400   1.000
    O244    O    0.96903   0.53445   0.05608   1.000
    O245    O    0.85488   0.50183   0.06451   1.000
    O246    O    0.88445   0.48823   0.02468   1.000
    O247    O    0.53182   0.96631   0.05607   1.000
    O248    O    0.64614   0.99842   0.06459   1.000
    O249    O    0.61624   0.01176   0.02479   1.000
    O250    O    0.53438   0.53166   0.05605   1.000
    O251    O    0.50149   0.64588   0.06465   1.000
    O252    O    0.48740   0.61595   0.02492   1.000
    O253    O    0.96632   0.96932   0.05626   1.000
    O254    O    0.99903   0.85493   0.06497   1.000
    O255    O    0.01217   0.88451   0.02512   1.000
    O256    O    0.55809   0.41130   0.08995   1.000
    O257    O    0.41140   0.94382   0.09001   1.000
    O258    O    0.94188   0.09049   0.08997   1.000
    O259    O    0.08812   0.55772   0.09073   1.000
    O260    O    0.80815   0.51469   0.10431   1.000
    O261    O    0.69315   0.98563   0.10433   1.000
    O262    O    0.51487   0.69296   0.10433   1.000
    O263    O    0.98680   0.80819   0.10481   1.000
    O264    O    0.94010   0.12309   0.14085   1.000
    O265    O    0.37915   0.94278   0.14094   1.000
    O266    O    0.55941   0.37888   0.14096   1.000
    O267    O    0.11934   0.55897   0.14226   1.000
    O268    O    0.53715   0.66122   0.13924   1.000
    O269    O    0.52398   0.73035   0.13947   1.000
    O270    O    0.83998   0.53680   0.13924   1.000
    O271    O    0.77098   0.52354   0.13949   1.000
    O272    O    0.66145   0.96396   0.13930   1.000
    O273    O    0.73048   0.97701   0.13952   1.000
    O274    O    0.96494   0.84015   0.13970   1.000
    O275    O    0.97766   0.77094   0.14001   1.000
    O276    O    0.91773   0.05647   0.16739   1.000
    O277    O    0.44528   0.91873   0.16746   1.000
    O278    O    0.58333   0.44497   0.16753   1.000
    O279    O    0.05359   0.58308   0.16905   1.000
    O280    O    0.58408   0.05258   0.33089   1.000
    O281    O    0.05386   0.91777   0.33087   1.000
    O282    O    0.44511   0.58287   0.33250   1.000
    O283    O    0.91765   0.44571   0.33246   1.000
    O284    O    0.11984   0.94054   0.35778   1.000
    O285    O    0.56175   0.11880   0.35786   1.000
    O286    O    0.94016   0.37897   0.35898   1.000
    O287    O    0.37910   0.55898   0.35905   1.000
    O288    O    0.77123   0.97688   0.36024   1.000
    O289    O    0.97738   0.73063   0.36039   1.000
    O290    O    0.73007   0.52385   0.36053   1.000
    O291    O    0.84043   0.96468   0.36044   1.000
    O292    O    0.96449   0.66151   0.36063   1.000
    O293    O    0.52338   0.76989   0.36089   1.000
    O294    O    0.66095   0.53663   0.36071   1.000
    O295    O    0.53665   0.83897   0.36108   1.000
    O296    O    0.80841   0.98609   0.39543   1.000
    O297    O    0.98653   0.69317   0.39556   1.000
    O298    O    0.69274   0.51473   0.39564   1.000
    O299    O    0.51424   0.80735   0.39602   1.000
    O300    O    0.08871   0.94226   0.40933   1.000
    O301    O    0.55977   0.08707   0.40936   1.000
    O302    O    0.94196   0.41120   0.40996   1.000
    O303    O    0.41135   0.55780   0.41005   1.000
    O304    O    0.85495   0.99822   0.43535   1.000
    O305    O    0.76772   0.00809   0.43635   1.000
    O306    O    0.99902   0.64610   0.43530   1.000
    O307    O    0.01036   0.73328   0.43639   1.000
    O308    O    0.64583   0.50178   0.43536   1.000
    O309    O    0.73300   0.49104   0.43646   1.000
    O310    O    0.50081   0.85445   0.43567   1.000
    O311    O    0.48982   0.76731   0.43675   1.000
    O312    O    0.53407   0.96802   0.44395   1.000
    O313    O    0.64692   0.02808   0.44485   1.000
    O314    O    0.54723   0.08359   0.46852   1.000
    O315    O    0.96934   0.96625   0.44387   1.000
    O316    O    0.03089   0.85426   0.44489   1.000
    O317    O    0.08495   0.95512   0.46859   1.000
    O318    O    0.96630   0.53184   0.44387   1.000
    O319    O    0.85402   0.47065   0.44500   1.000
    O320    O    0.95394   0.41569   0.46873   1.000
    O321    O    0.53161   0.53437   0.44396   1.000
    O322    O    0.46977   0.64664   0.44518   1.000
    O323    O    0.41561   0.54628   0.46881   1.000
    O324    O    0.01238   0.61614   0.47510   1.000
    O325    O    0.61601   0.48809   0.47515   1.000
    O326    O    0.88437   0.01112   0.47527   1.000
    O327    O    0.48683   0.88445   0.47542   1.000
    O328    O    0.74563   0.02676   0.47583   1.000
    O329    O    0.03027   0.75479   0.47577   1.000
    O330    O    0.75464   0.47109   0.47586   1.000
    O331    O    0.46942   0.74582   0.47608   1.000
    O332    O    0.54903   0.25598   0.48275   1.000
    O333    O    0.25667   0.95618   0.48286   1.000
    O334    O    0.24351   0.54693   0.48288   1.000
    O335    O    0.95193   0.24347   0.48290   1.000
    O336    O    0.53214   0.18188   0.49947   1.000
    O337    O    0.51314   0.11559   0.52456   1.000
    O338    O    0.18230   0.97159   0.49959   1.000
    O339    O    0.11559   0.98887   0.52471   1.000
    O340    O    0.96872   0.31754   0.49969   1.000
    O341    O    0.98753   0.38386   0.52483   1.000
    O342    O    0.31762   0.53049   0.49969   1.000
    O343    O    0.38399   0.51192   0.52484   1.000
    O344    O    0.03131   0.68246   0.50021   1.000
    O345    O    0.04812   0.75653   0.51700   1.000
    O346    O    0.53057   0.25422   0.52390   1.000
    O347    O    0.68238   0.46951   0.50028   1.000
    O348    O    0.75649   0.45304   0.51708   1.000
    O349    O    0.81765   0.02838   0.50039   1.000
    O350    O    0.74328   0.04377   0.51712   1.000
    O351    O    0.25434   0.97323   0.52416   1.000
    O352    O    0.24535   0.52888   0.52410   1.000
    O353    O    0.96974   0.24521   0.52414   1.000
    O354    O    0.46784   0.81816   0.50051   1.000
    O355    O    0.45096   0.74405   0.51723   1.000
    O356    O    0.04607   0.58432   0.53121   1.000
    O357    O    0.58439   0.45374   0.53117   1.000
    O358    O    0.91501   0.04488   0.53138   1.000
    O359    O    0.45275   0.91644   0.53145   1.000
    O360    O    0.53022   0.35340   0.55480   1.000
    O361    O    0.51016   0.23272   0.56324   1.000
    O362    O    0.14597   0.52935   0.55496   1.000
    O363    O    0.26698   0.50895   0.56349   1.000
    O364    O    0.96908   0.14576   0.55506   1.000
    O365    O    0.98961   0.26674   0.56355   1.000
    O366    O    0.35305   0.97194   0.55513   1.000
    O367    O    0.23225   0.99193   0.56363   1.000
    O368    O    0.46590   0.03202   0.55602   1.000
    O369    O    0.49915   0.14558   0.56431   1.000
    O370    O    0.03063   0.03377   0.55610   1.000
    O371    O    0.14501   0.00180   0.56463   1.000
    O372    O    0.03359   0.46818   0.55607   1.000
    O373    O    0.00085   0.35391   0.56463   1.000
    O374    O    0.46838   0.46566   0.55602   1.000
    O375    O    0.35415   0.49823   0.56460   1.000
    O376    O    0.58865   0.44223   0.58993   1.000
    O377    O    0.05803   0.58881   0.59000   1.000
    O378    O    0.91125   0.05777   0.59063   1.000
    O379    O    0.44021   0.91296   0.59062   1.000
    O380    O    0.48572   0.19268   0.60397   1.000
    O381    O    0.30723   0.48527   0.60431   1.000
    O382    O    0.01339   0.30685   0.60438   1.000
    O383    O    0.19156   0.01398   0.60454   1.000
    O384    O    0.62089   0.44103   0.64093   1.000
    O385    O    0.05980   0.62105   0.64097   1.000
    O386    O    0.43822   0.88121   0.64211   1.000
    O387    O    0.88010   0.05949   0.64217   1.000
    O388    O    0.46332   0.16106   0.63889   1.000
    O389    O    0.47659   0.23013   0.63909   1.000
    O390    O    0.33901   0.46337   0.63926   1.000
    O391    O    0.26989   0.47614   0.63944   1.000
    O392    O    0.03541   0.33852   0.63931   1.000
    O393    O    0.02253   0.26941   0.63956   1.000
    O394    O    0.15954   0.03540   0.63952   1.000
    O395    O    0.22874   0.02320   0.63973   1.000
    O396    O    0.55487   0.41714   0.66749   1.000
    O397    O    0.08231   0.55431   0.66746   1.000
    O398    O    0.41589   0.94742   0.66905   1.000
    O399    O    0.94607   0.08227   0.66905   1.000
    O400    O    0.94639   0.41692   0.83094   1.000
    O401    O    0.41661   0.55501   0.83244   1.000
    O402    O    0.55467   0.08129   0.83252   1.000
    O403    O    0.08224   0.94353   0.83257   1.000
    O404    O    0.88064   0.44105   0.85774   1.000
    O405    O    0.44047   0.62111   0.85898   1.000
    O406    O    0.62082   0.05726   0.85904   1.000
    O407    O    0.05984   0.87690   0.85910   1.000
    O408    O    0.02217   0.22897   0.85992   1.000
    O409    O    0.26959   0.02253   0.86039   1.000
    O410    O    0.47599   0.26960   0.86051   1.000
    O411    O    0.22906   0.47626   0.86054   1.000
    O412    O    0.03490   0.15976   0.86023   1.000
    O413    O    0.33861   0.03559   0.86061   1.000
    O414    O    0.46284   0.33874   0.86074   1.000
    O415    O    0.16006   0.46303   0.86079   1.000
    O416    O    0.01304   0.19172   0.89512   1.000
    O417    O    0.30693   0.01390   0.89558   1.000
    O418    O    0.48510   0.30700   0.89565   1.000
    O419    O    0.19189   0.48510   0.89572   1.000
    O420    O    0.91187   0.44228   0.90926   1.000
    O421    O    0.44183   0.58870   0.90995   1.000
    O422    O    0.58858   0.05620   0.90997   1.000
    O423    O    0.05808   0.90949   0.90998   1.000
    O424    O    0.00074   0.14499   0.93497   1.000
    O425    O    0.98983   0.23225   0.93593   1.000
    O426    O    0.49852   0.35409   0.93532   1.000
    O427    O    0.50968   0.26686   0.93637   1.000
    O428    O    0.35390   0.00131   0.93534   1.000
    O429    O    0.26680   0.99033   0.93641   1.000
    O430    O    0.14516   0.49800   0.93552   1.000
    O431    O    0.23226   0.50899   0.93646   1.000
    O432    O    0.03098   0.46546   0.94392   1.000
    O433    O    0.96963   0.35325   0.94461   1.000
    O434    O    0.91542   0.45376   0.96858   1.000
    O435    O    0.03349   0.03062   0.94369   1.000
    O436    O    0.14589   0.96957   0.94492   1.000
    O437    O    0.04585   0.91516   0.96883   1.000
    O438    O    0.46818   0.03359   0.94388   1.000
    O439    O    0.52997   0.14571   0.94491   1.000
    O440    O    0.58440   0.04544   0.96871   1.000
    O441    O    0.46564   0.46833   0.94388   1.000
    O442    O    0.35307   0.52949   0.94496   1.000
    O443    O    0.45302   0.58429   0.96882   1.000
    O444    O    0.97038   0.25418   0.97534   1.000
    O445    O    0.53026   0.24529   0.97568   1.000
    O446    O    0.25411   0.52897   0.97580   1.000
    O447    O    0.24525   0.97069   0.97583   1.000
    N448    N    0.07055   0.74893   0.75003   1.000
    O449    O    0.07061   0.69451   0.71799   1.000
    O450    O    0.07058   0.80335   0.78207   1.000
    N451    N    0.42858   0.75097   0.75053   1.000
    O452    O    0.42817   0.80609   0.71876   1.000
    O453    O    0.42873   0.69595   0.78235   1.000
    N454    N    0.57134   0.24902   0.24943   1.000
    O455    O    0.57118   0.30404   0.21761   1.000
    O456    O    0.57177   0.19390   0.28121   1.000
    N457    N    0.24978   0.93100   0.24939   1.000
    O458    O    0.19478   0.93053   0.28115   1.000
    O459    O    0.30465   0.93111   0.21758   1.000
    N460    N    0.24954   0.56980   0.25059   1.000
    O461    O    0.19450   0.57002   0.21882   1.000
    O462    O    0.30446   0.56999   0.28239   1.000
    N463    N    0.92939   0.25109   0.24991   1.000
    O464    O    0.92933   0.30550   0.28196   1.000
    O465    O    0.92937   0.19666   0.21787   1.000
    N466    N    0.75043   0.43017   0.74939   1.000
    O467    O    0.69551   0.42999   0.71759   1.000
    O468    O    0.80547   0.42996   0.78117   1.000
    N469    N    0.75016   0.06903   0.75058   1.000
    O470    O    0.80515   0.06950   0.71880   1.000
    O471    O    0.69529   0.06892   0.78239   1.000
loop_
    _geom_bond_atom_site_label_1
    _geom_bond_atom_site_label_2
    _geom_bond_distance
    _geom_bond_site_symmetry_2
    _ccdc_geom_bond_type
    Zr107  O208      0.68465      .   S
    Zr170  O208      0.68465      .   S
    Zr107  O209      0.53735  1_554   S
    Zr58   O209      0.53735      .   S
    Zr107  O210      0.66085  1_554   S
    Zr169  O210      0.66085      .   S
    Zr104  O211      0.68060      .   S
    Zr166  O211      0.68060      .   S
    Zr104  O212      0.54092  1_554   S
    Zr55   O212      0.54092      .   S
    Zr104  O213      0.66107  1_554   S
    Zr165  O213      0.66107      .   S
    Zr110  O214      0.68242      .   S
    Zr174  O214      0.68242      .   S
    Zr110  O215      0.53949  1_554   S
    Zr61   O215      0.53949      .   S
    Zr110  O216      0.66114  1_554   S
    Zr173  O216      0.66114      .   S
    Zr101  O217      0.67943      .   S
    Zr162  O217      0.67943      .   S
    Zr101  O218      0.54212  1_554   S
    Zr52   O218      0.54212      .   S
    Zr101  O219      0.66119  1_554   S
    Zr161  O219      0.66119      .   S
    Zr137  O220      1.01917      .   S
    Zr6    O220      1.01917      .   S
    Zr137  O221      0.69976  1_554   S
    Zr136  O221      0.69976      .   S
    Zr137  O222      0.66094  1_554   S
    Zr83   O222      0.66094      .   S
    Zr141  O223      1.02150      .   S
    Zr7    O223      1.02150      .   S
    Zr141  O224      0.69982  1_554   S
    Zr140  O224      0.69982      .   S
    Zr141  O225      0.66119      .   S
    Zr86   O225      0.66119  1_556   S
    Zr129  O226      1.02118      .   S
    Zr4    O226      1.02118      .   S
    Zr129  O227      0.69993  1_554   S
    Zr128  O227      0.69993  1_545   S
    Zr129  O228      0.66120      .   S
    Zr77   O228      0.66120  1_556   S
    Zr133  O229      1.01975      .   S
    Zr5    O229      1.01975      .   S
    Zr133  O230      0.69985  1_554   S
    Zr132  O230      0.69985      .   S
    Zr133  O231      0.66111      .   S
    Zr80   O231      0.66111  1_556   S
    Zr34   O232      0.54256      .   S
    Zr83   O232      0.54256  1_556   S
    Zr37   O233      0.54254      .   S
    Zr86   O233      0.54254  1_556   S
    Zr31   O234      0.54226      .   S
    Zr80   O234      0.54226  1_556   S
    Zr28   O235      0.54258      .   S
    Zr77   O235      0.54258  1_556   S
    Zr162  O236      1.02308      .   S
    Zr6    O236      1.02308      .   S
    Zr162  O237      0.68649      .   S
    Zr100  O237      0.68649  1_565   S
    Zr166  O238      1.01951      .   S
    Zr7    O238      1.01951      .   S
    Zr166  O239      0.68660      .   S
    Zr103  O239      0.68660      .   S
    Zr174  O240      1.02229      .   S
    Zr4    O240      1.02229      .   S
    Zr174  O241      0.68642      .   S
    Zr109  O241      0.68642      .   S
    Zr170  O242      1.01840      .   S
    Zr5    O242      1.01840      .   S
    Zr170  O243      0.68647      .   S
    Zr106  O243      0.68647  1_655   S
    Zr164  O244      0.99808      .   S
    Zr5    O244      0.99808  1_455   S
    Zr164  O245      0.67793      .   S
    Zr103  O245      0.67793      .   S
    Zr164  O246      0.69995      .   S
    Zr165  O246      0.69995  1_556   S
    Zr160  O247      0.99534      .   S
    Zr4    O247      0.99534      .   S
    Zr160  O248      0.67794      .   S
    Zr100  O248      0.67794      .   S
    Zr160  O249      0.69963  1_565   S
    Zr161  O249      0.69963  1_556   S
    Zr172  O250      0.99602      .   S
    Zr7    O250      0.99602      .   S
    Zr172  O251      0.67799      .   S
    Zr109  O251      0.67799      .   S
    Zr172  O252      0.69977      .   S
    Zr173  O252      0.69977  1_556   S
    Zr168  O253      0.99595  1_455   S
    Zr6    O253      0.99595  1_545   S
    Zr168  O254      0.67783  1_455   S
    Zr106  O254      0.67783      .   S
    Zr168  O255      0.70025      .   S
    Zr169  O255      0.70025  1_556   S
    Zr7    O256      0.98235      .   S
    Zr190  O256      0.98235      .   S
    Zr4    O257      0.98121      .   S
    Zr184  O257      0.98121      .   S
    Zr6    O258      0.98160      .   S
    Zr188  O258      0.98160      .   S
    Zr5    O259      0.98030      .   S
    Zr186  O259      0.98030      .   S
    Zr103  O260      0.67075      .   S
    Zr167  O260      0.67075      .   S
    Zr100  O261      0.67080      .   S
    Zr163  O261      0.67080      .   S
    Zr109  O262      0.67086      .   S
    Zr175  O262      0.67086      .   S
    Zr106  O263      0.67075      .   S
    Zr171  O263      0.67075      .   S
    Zr188  O264      0.64760      .   S
    Zr84   O264      0.64760      .   S
    Zr184  O265      0.64753      .   S
    Zr78   O265      0.64753      .   S
    Zr190  O266      0.64759      .   S
    Zr87   O266      0.64759      .   S
    Zr186  O267      0.64759      .   S
    Zr81   O267      0.64759      .   S
    Zr175  O268      0.51359      .   S
    Zr63   O268      0.51359      .   S
    Zr175  O269      0.51338      .   S
    Zr62   O269      0.51338      .   S
    Zr167  O270      0.51393      .   S
    Zr57   O270      0.51393      .   S
    Zr167  O271      0.51336      .   S
    Zr56   O271      0.51336      .   S
    Zr163  O272      0.51349      .   S
    Zr54   O272      0.51349      .   S
    Zr163  O273      0.51330      .   S
    Zr53   O273      0.51330      .   S
    Zr171  O274      0.51351      .   S
    Zr60   O274      0.51351      .   S
    Zr171  O275      0.51344      .   S
    Zr59   O275      0.51344      .   S
    Zr84   O276      0.63300      .   S
    Zr189  O276      0.63300      .   S
    Zr78   O277      0.63308      .   S
    Zr185  O277      0.63308      .   S
    Zr87   O278      0.63310      .   S
    Zr191  O278      0.63310      .   S
    Zr81   O279      0.63282      .   S
    Zr187  O279      0.63282      .   S
    Zr181  O280      0.63291      .   S
    Zr72   O280      0.63291      .   S
    Zr177  O281      0.63264      .   S
    Zr66   O281      0.63264      .   S
    Zr179  O282      0.63315      .   S
    Zr69   O282      0.63315      .   S
    Zr183  O283      0.63315      .   S
    Zr75   O283      0.63315      .   S
    Zr66   O284      0.64768      .   S
    Zr176  O284      0.64768      .   S
    Zr72   O285      0.64779      .   S
    Zr180  O285      0.64779      .   S
    Zr75   O286      0.64740      .   S
    Zr182  O286      0.64740      .   S
    Zr69   O287      0.64749      .   S
    Zr178  O287      0.64749      .   S
    Zr41   O288      0.51341      .   S
    Zr147  O288      0.51341      .   S
    Zr50   O289      0.51334      .   S
    Zr159  O289      0.51334      .   S
    Zr44   O290      0.51334      .   S
    Zr151  O290      0.51334      .   S
    Zr42   O291      0.51409      .   S
    Zr147  O291      0.51409      .   S
    Zr51   O292      0.51358      .   S
    Zr159  O292      0.51358      .   S
    Zr47   O293      0.51359      .   S
    Zr155  O293      0.51359      .   S
    Zr45   O294      0.51363      .   S
    Zr151  O294      0.51363      .   S
    Zr48   O295      0.51400      .   S
    Zr155  O295      0.51400      .   S
    Zr147  O296      0.67052      .   S
    Zr88   O296      0.67052      .   S
    Zr159  O297      0.67069      .   S
    Zr97   O297      0.67069      .   S
    Zr151  O298      0.67024      .   S
    Zr91   O298      0.67024      .   S
    Zr155  O299      0.67064      .   S
    Zr94   O299      0.67064      .   S
    Zr176  O300      0.97873      .   S
    Zr0    O300      0.97873      .   S
    Zr180  O301      0.98116      .   S
    Zr2    O301      0.98116      .   S
    Zr182  O302      0.98129      .   S
    Zr3    O302      0.98129      .   S
    Zr178  O303      0.98111      .   S
    Zr1    O303      0.98111      .   S
    Zr88   O304      0.67800      .   S
    Zr144  O304      0.67800      .   S
    Zr88   O305      0.68640  1_565   S
    Zr146  O305      0.68640      .   S
    Zr97   O306      0.67804      .   S
    Zr156  O306      0.67804  1_455   S
    Zr97   O307      0.68656  1_655   S
    Zr158  O307      0.68656      .   S
    Zr91   O308      0.67828      .   S
    Zr148  O308      0.67828      .   S
    Zr91   O309      0.68675      .   S
    Zr150  O309      0.68675      .   S
    Zr94   O310      0.67781      .   S
    Zr152  O310      0.67781      .   S
    Zr94   O311      0.68623      .   S
    Zr154  O311      0.68623      .   S
    Zr2    O312      0.99380  1_545   S
    Zr152  O312      0.99380      .   S
    Zr2    O313      1.01835      .   S
    Zr146  O313      1.01835      .   S
    Zr2    O314      1.02184      .   S
    Zr121  O314      1.02184      .   S
    Zr0    O315      0.99682  1_455   S
    Zr144  O315      0.99682      .   S
    Zr0    O316      1.02212      .   S
    Zr158  O316      1.02212      .   S
    Zr0    O317      1.01829      .   S
    Zr113  O317      1.01829      .   S
    Zr3    O318      0.99511      .   S
    Zr156  O318      0.99511  1_455   S
    Zr3    O319      1.02287      .   S
    Zr150  O319      1.02287      .   S
    Zr3    O320      1.02077      .   S
    Zr125  O320      1.02077      .   S
    Zr1    O321      0.99598      .   S
    Zr148  O321      0.99598      .   S
    Zr1    O322      1.01797      .   S
    Zr154  O322      1.01797      .   S
    Zr1    O323      1.02213      .   S
    Zr117  O323      1.02213      .   S
    Zr156  O324      0.69990      .   S
    Zr157  O324      0.69990      .   S
    Zr148  O325      0.69963      .   S
    Zr149  O325      0.69963      .   S
    Zr144  O326      0.69968  1_565   S
    Zr145  O326      0.69968      .   S
    Zr152  O327      0.69975      .   S
    Zr153  O327      0.69975      .   S
    Zr146  O328      0.67851      .   S
    Zr89   O328      0.67851      .   S
    Zr158  O329      0.67828      .   S
    Zr98   O329      0.67828      .   S
    Zr150  O330      0.67889      .   S
    Zr92   O330      0.67889      .   S
    Zr154  O331      0.67873      .   S
    Zr95   O331      0.67873      .   S
    Zr22   O332      0.54257      .   S
    Zr71   O332      0.54257      .   S
    Zr16   O333      0.54255      .   S
    Zr65   O333      0.54255      .   S
    Zr19   O334      0.54266      .   S
    Zr68   O334      0.54266      .   S
    Zr25   O335      0.54259      .   S
    Zr74   O335      0.54259      .   S
    Zr121  O336      0.66109      .   S
    Zr71   O336      0.66109      .   S
    Zr121  O337      0.69977      .   S
    Zr120  O337      0.69977      .   S
    Zr113  O338      0.66101      .   S
    Zr65   O338      0.66101      .   S
    Zr113  O339      0.69973      .   S
    Zr112  O339      0.69973  1_545   S
    Zr125  O340      0.66118      .   S
    Zr74   O340      0.66118      .   S
    Zr125  O341      0.69958      .   S
    Zr124  O341      0.69958      .   S
    Zr117  O342      0.66119      .   S
    Zr68   O342      0.66119      .   S
    Zr117  O343      0.69959      .   S
    Zr116  O343      0.69959      .   S
    Zr98   O344      0.66118      .   S
    Zr157  O344      0.66118      .   S
    Zr98   O345      0.54302      .   S
    Zr49   O345      0.54302      .   S
    Zr71   O346      0.67873      .   S
    Zr122  O346      0.67873      .   S
    Zr92   O347      0.66119      .   S
    Zr149  O347      0.66119      .   S
    Zr92   O348      0.54261      .   S
    Zr43   O348      0.54261      .   S
    Zr89   O349      0.66101      .   S
    Zr145  O349      0.66101      .   S
    Zr89   O350      0.54242      .   S
    Zr40   O350      0.54242      .   S
    Zr65   O351      0.67857      .   S
    Zr114  O351      0.67857      .   S
    Zr68   O352      0.67892      .   S
    Zr118  O352      0.67892      .   S
    Zr74   O353      0.67878      .   S
    Zr126  O353      0.67878      .   S
    Zr95   O354      0.66109      .   S
    Zr153  O354      0.66109      .   S
    Zr95   O355      0.54254      .   S
    Zr46   O355      0.54254      .   S
    Zr157  O356      1.02092      .   S
    Zr11   O356      1.02092      .   S
    Zr149  O357      1.02201      .   S
    Zr9    O357      1.02201      .   S
    Zr145  O358      1.01830      .   S
    Zr8    O358      1.01830      .   S
    Zr153  O359      1.02181      .   S
    Zr10   O359      1.02181      .   S
    Zr122  O360      1.01794      .   S
    Zr9    O360      1.01794      .   S
    Zr122  O361      0.68626      .   S
    Zr70   O361      0.68626      .   S
    Zr118  O362      1.02288      .   S
    Zr11   O362      1.02288      .   S
    Zr118  O363      0.68646      .   S
    Zr67   O363      0.68646      .   S
    Zr126  O364      1.02212      .   S
    Zr8    O364      1.02212      .   S
    Zr126  O365      0.68655      .   S
    Zr73   O365      0.68655  1_455   S
    Zr114  O366      1.01841      .   S
    Zr10   O366      1.01841      .   S
    Zr114  O367      0.68636      .   S
    Zr64   O367      0.68636  1_545   S
    Zr120  O368      0.99377      .   S
    Zr10   O368      0.99377  1_565   S
    Zr120  O369      0.67786      .   S
    Zr70   O369      0.67786      .   S
    Zr112  O370      0.99681      .   S
    Zr8    O370      0.99681  1_655   S
    Zr112  O371      0.67801      .   S
    Zr64   O371      0.67801      .   S
    Zr124  O372      0.99571  1_655   S
    Zr11   O372      0.99571      .   S
    Zr124  O373      0.67809  1_655   S
    Zr73   O373      0.67809      .   S
    Zr116  O374      0.99596      .   S
    Zr9    O374      0.99596      .   S
    Zr116  O375      0.67798      .   S
    Zr67   O375      0.67798      .   S
    Zr9    O376      0.98119      .   S
    Zr194  O376      0.98119      .   S
    Zr11   O377      0.98119      .   S
    Zr198  O377      0.98119      .   S
    Zr8    O378      0.97877      .   S
    Zr192  O378      0.97877      .   S
    Zr10   O379      0.98123      .   S
    Zr196  O379      0.98123      .   S
    Zr70   O380      0.67053      .   S
    Zr123  O380      0.67053      .   S
    Zr67   O381      0.67077      .   S
    Zr119  O381      0.67077      .   S
    Zr73   O382      0.67071      .   S
    Zr127  O382      0.67071      .   S
    Zr64   O383      0.67049      .   S
    Zr115  O383      0.67049      .   S
    Zr194  O384      0.64754      .   S
    Zr93   O384      0.64754      .   S
    Zr198  O385      0.64745      .   S
    Zr99   O385      0.64745      .   S
    Zr196  O386      0.64768      .   S
    Zr96   O386      0.64768      .   S
    Zr192  O387      0.64706      .   S
    Zr90   O387      0.64706      .   S
    Zr123  O388      0.51395      .   S
    Zr24   O388      0.51395      .   S
    Zr123  O389      0.51358      .   S
    Zr23   O389      0.51358      .   S
    Zr119  O390      0.51358      .   S
    Zr21   O390      0.51358      .   S
    Zr119  O391      0.51332      .   S
    Zr20   O391      0.51332      .   S
    Zr127  O392      0.51362      .   S
    Zr27   O392      0.51362      .   S
    Zr127  O393      0.51335      .   S
    Zr26   O393      0.51335      .   S
    Zr115  O394      0.51406      .   S
    Zr18   O394      0.51406      .   S
    Zr115  O395      0.51343      .   S
    Zr17   O395      0.51343      .   S
    Zr93   O396      0.63315      .   S
    Zr195  O396      0.63315      .   S
    Zr99   O397      0.63301      .   S
    Zr199  O397      0.63301      .   S
    Zr96   O398      0.63282      .   S
    Zr197  O398      0.63282      .   S
    Zr90   O399      0.63260      .   S
    Zr193  O399      0.63260      .   S
    Zr203  O400      0.63281      .   S
    Zr105  O400      0.63281      .   S
    Zr207  O401      0.63307      .   S
    Zr111  O401      0.63307      .   S
    Zr201  O402      0.63308      .   S
    Zr102  O402      0.63308      .   S
    Zr205  O403      0.63301      .   S
    Zr108  O403      0.63301      .   S
    Zr105  O404      0.64762      .   S
    Zr202  O404      0.64762      .   S
    Zr111  O405      0.64684      .   S
    Zr206  O405      0.64684      .   S
    Zr102  O406      0.64753      .   S
    Zr200  O406      0.64753      .   S
    Zr108  O407      0.64753      .   S
    Zr204  O407      0.64753      .   S
    Zr35   O408      0.51343      .   S
    Zr139  O408      0.51343      .   S
    Zr29   O409      0.51328      .   S
    Zr131  O409      0.51328      .   S
    Zr38   O410      0.51342      .   S
    Zr143  O410      0.51342      .   S
    Zr32   O411      0.51341      .   S
    Zr135  O411      0.51341      .   S
    Zr36   O412      0.51354      .   S
    Zr139  O412      0.51354      .   S
    Zr30   O413      0.51351      .   S
    Zr131  O413      0.51351      .   S
    Zr39   O414      0.51358      .   S
    Zr143  O414      0.51358      .   S
    Zr33   O415      0.51398      .   S
    Zr135  O415      0.51398      .   S
    Zr139  O416      0.67059      .   S
    Zr82   O416      0.67059      .   S
    Zr131  O417      0.67079      .   S
    Zr76   O417      0.67079      .   S
    Zr143  O418      0.67075      .   S
    Zr85   O418      0.67075      .   S
    Zr135  O419      0.67063      .   S
    Zr79   O419      0.67063      .   S
    Zr202  O420      0.98017      .   S
    Zr13   O420      0.98017      .   S
    Zr206  O421      0.98218      .   S
    Zr15   O421      0.98218      .   S
    Zr200  O422      0.98126      .   S
    Zr12   O422      0.98126      .   S
    Zr204  O423      0.98156      .   S
    Zr14   O423      0.98156      .   S
    Zr82   O424      0.67802      .   S
    Zr136  O424      0.67802  1_655   S
    Zr82   O425      0.68655  1_455   S
    Zr138  O425      0.68655      .   S
    Zr85   O426      0.67801      .   S
    Zr140  O426      0.67801      .   S
    Zr85   O427      0.68649      .   S
    Zr142  O427      0.68649      .   S
    Zr76   O428      0.67780      .   S
    Zr128  O428      0.67780      .   S
    Zr76   O429      0.68652  1_545   S
    Zr130  O429      0.68652      .   S
    Zr79   O430      0.67799      .   S
    Zr132  O430      0.67799      .   S
    Zr79   O431      0.68659      .   S
    Zr134  O431      0.68659      .   S
    Zr13   O432      0.99805  1_655   S
    Zr132  O432      0.99805      .   S
    Zr13   O433      1.01857      .   S
    Zr138  O433      1.01857      .   S
    Zr13   O434      1.01976      .   S
    Zr165  O434      1.01976      .   S
    Zr14   O435      0.99681  1_565   S
    Zr136  O435      0.99681  1_655   S
    Zr14   O436      1.02308      .   S
    Zr130  O436      1.02308      .   S
    Zr14   O437      1.01918      .   S
    Zr169  O437      1.01918      .   S
    Zr12   O438      0.99543      .   S
    Zr128  O438      0.99543      .   S
    Zr12   O439      1.02218      .   S
    Zr142  O439      1.02218      .   S
    Zr12   O440      1.02116      .   S
    Zr161  O440      1.02116      .   S
    Zr15   O441      0.99632      .   S
    Zr140  O441      0.99632      .   S
    Zr15   O442      1.01970      .   S
    Zr134  O442      1.01970      .   S
    Zr15   O443      1.02227      .   S
    Zr173  O443      1.02227      .   S
    Zr138  O444      0.67883      .   S
    Zr83   O444      0.67883      .   S
    Zr142  O445      0.67897      .   S
    Zr86   O445      0.67897      .   S
    Zr134  O446      0.67870      .   S
    Zr80   O446      0.67870      .   S
    Zr130  O447      0.67891      .   S
    Zr77   O447      0.67891      .   S
    N448   O449      1.07534      .   S
    Zr99   O449      1.82297      .   S
    N448   O450      1.07543      .   S
    Zr108  O450      1.82320      .   S
    N451   O452      1.07601      .   S
    Zr96   O452      1.82424      .   S
    N451   O453      1.07603      .   S
    Zr111  O453      1.82401      .   S
    N454   O455      1.07592      .   S
    Zr87   O455      1.82389      .   S
    N454   O456      1.07611      .   S
    Zr72   O456      1.82420      .   S
    N457   O458      1.07559      .   S
    Zr66   O458      1.82341      .   S
    N457   O459      1.07553      .   S
    Zr78   O459      1.82317      .   S
    N460   O461      1.07553      .   S
    Zr81   O461      1.82335      .   S
    N460   O462      1.07530      .   S
    Zr69   O462      1.82313      .   S
    N463   O464      1.07547      .   S
    Zr75   O464      1.82318      .   S
    N463   O465      1.07540      .   S
    Zr84   O465      1.82302      .   S
    N466   O467      1.07528      .   S
    Zr93   O467      1.82288      .   S
    N466   O468      1.07568      .   S
    Zr105  O468      1.82364      .   S
    N469   O470      1.07581      .   S
    Zr90   O470      1.82414      .   S
    N469   O471      1.07553      .   S
    Zr102  O471      1.82323      .   S
