# CIF file generated by openbabel 2.4.90, see http://openbabel.sf.net
data_I
_chemical_name_common ''
_cell_length_a 12.194
_cell_length_b 12.182
_cell_length_c 23.169
_cell_angle_alpha 90
_cell_angle_beta 90
_cell_angle_gamma 90.001
_space_group_name_H-M_alt 'P 1'
_space_group_name_Hall 'P 1'
loop_
    _symmetry_equiv_pos_as_xyz
    x,y,z
loop_
    _atom_site_label
    _atom_site_type_symbol
    _atom_site_fract_x
    _atom_site_fract_y
    _atom_site_fract_z
    _atom_site_occupancy
    C0      C    0.85095   0.50000   0.92242   1.000
    C1      C    0.14899   0.50000   0.92242   1.000
    C2      C    0.49998   0.85093   0.42241   1.000
    C3      C    0.49998   0.14907   0.42241   1.000
    C4      C    0.14900   0.50000   0.07757   1.000
    C5      C    0.85096   0.50001   0.07757   1.000
    C6      C    0.49998   0.85093   0.57758   1.000
    C7      C    0.49998   0.14907   0.57758   1.000
