# CIF file generated by openbabel 2.4.90, see http://openbabel.sf.net
data_I
_chemical_name_common ''
_cell_length_a 12.194
_cell_length_b 12.182
_cell_length_c 23.169
_cell_angle_alpha 90
_cell_angle_beta 90
_cell_angle_gamma 90.001
_space_group_name_H-M_alt 'P 1'
_space_group_name_Hall 'P 1'
loop_
    _symmetry_equiv_pos_as_xyz
    x,y,z
loop_
    _atom_site_label
    _atom_site_type_symbol
    _atom_site_fract_x
    _atom_site_fract_y
    _atom_site_fract_z
    _atom_site_occupancy
    N0      N    0.49997   0.50000   0.75003   1.000
    N1      N    0.49998   0.50000   0.24995   1.000
    Zr2     Zr   0.99998   0.50000   0.99999   1.000
    O3      O    0.82679   0.50000   0.08749   1.000
    O4      O    0.17318   0.50000   0.08749   1.000
    O5      O    0.17317   0.50000   0.91249   1.000
    O6      O    0.82678   0.50000   0.91249   1.000
    Zr7     Zr   0.49998   0.00000   0.50000   1.000
    O8      O    0.49998   0.17320   0.58752   1.000
    O9      O    0.49998   0.82680   0.41247   1.000
    O10     O    0.49998   0.17320   0.41247   1.000
    O11     O    0.49998   0.82680   0.58752   1.000
loop_
    _geom_bond_atom_site_label_1
    _geom_bond_atom_site_label_2
    _geom_bond_distance
    _geom_bond_site_symmetry_2
    _ccdc_geom_bond_type
    Zr2    O3        2.92747  1_556   S
    N1     O3        5.48158      .   S
    Zr2    O4        2.92748  1_656   S
    N1     O4        5.48159      .   S
    Zr2    O5        2.92744  1_655   S
    N0     O5        5.48163      .   S
    Zr2    O6        2.92751      .   S
    N0     O6        5.48169      .   S
    Zr7    O8        2.92640      .   S
    N0     O8        5.47966      .   S
    Zr7    O9        2.92654  1_545   S
    N1     O9        5.47967      .   S
    Zr7    O10       2.92654      .   S
    N1     O10       5.47968      .   S
    Zr7    O11       2.92639  1_545   S
    N0     O11       5.47965      .   S
