# CIF file generated by openbabel 2.4.90, see http://openbabel.sf.net
data_I
_chemical_name_common ''
_cell_length_a 13.72
_cell_length_b 14.236
_cell_length_c 15.975
_cell_angle_alpha 90.004
_cell_angle_beta 89.996
_cell_angle_gamma 89.99
_space_group_name_H-M_alt 'P 1'
_space_group_name_Hall 'P 1'
loop_
    _symmetry_equiv_pos_as_xyz
    x,y,z
loop_
    _atom_site_label
    _atom_site_type_symbol
    _atom_site_fract_x
    _atom_site_fract_y
    _atom_site_fract_z
    _atom_site_occupancy
    Lv0     Lv   0.12544   0.99796   0.24809   1.000
    Lv1     Lv   0.37499   0.49774   0.74859   1.000
    Lv2     Lv   0.37538   0.49842   0.24803   1.000
    Lv3     Lv   0.62526   0.99539   0.24669   1.000
    Lv4     Lv   0.87507   0.49495   0.25063   1.000
    Lv5     Lv   0.12551   0.99810   0.74825   1.000
    Lv6     Lv   0.62528   0.00096   0.74672   1.000
    Lv7     Lv   0.87542   0.50101   0.75095   1.000
