# CIF file generated by openbabel 2.4.90, see http://openbabel.sf.net
data_I
_chemical_name_common ''
_cell_length_a 13.72
_cell_length_b 14.236
_cell_length_c 15.975
_cell_angle_alpha 90.004
_cell_angle_beta 89.996
_cell_angle_gamma 89.99
_space_group_name_H-M_alt 'P 1'
_space_group_name_Hall 'P 1'
loop_
    _symmetry_equiv_pos_as_xyz
    x,y,z
loop_
    _atom_site_label
    _atom_site_type_symbol
    _atom_site_fract_x
    _atom_site_fract_y
    _atom_site_fract_z
    _atom_site_occupancy
    H0      H    0.28595   0.03868   0.81118   1.000
    H1      H    0.78638   0.04735   0.80508   1.000
    H2      H    0.27575   0.92130   0.69406   1.000
    H3      H    0.77624   0.92982   0.68800   1.000
    H4      H    0.47429   0.07215   0.80537   1.000
    H5      H    0.97527   0.07487   0.80246   1.000
    H6      H    0.46423   0.95461   0.68830   1.000
    H7      H    0.96513   0.95750   0.68529   1.000
    H8      H    0.46552   0.95936   0.31311   1.000
    H9      H    0.96503   0.95800   0.31144   1.000
    H10     H    0.47563   0.07533   0.19490   1.000
    H11     H    0.97516   0.07418   0.19333   1.000
    H12     H    0.27571   0.92175   0.30294   1.000
    H13     H    0.77486   0.91544   0.29848   1.000
    H14     H    0.28590   0.03790   0.18470   1.000
    H15     H    0.78502   0.03141   0.18030   1.000
    H16     H    0.21461   0.53626   0.68445   1.000
    H17     H    0.71470   0.54282   0.68915   1.000
    H18     H    0.22503   0.42040   0.80269   1.000
    H19     H    0.72487   0.42685   0.80737   1.000
    H20     H    0.02596   0.57520   0.69457   1.000
    H21     H    0.52495   0.57505   0.69446   1.000
    H22     H    0.03612   0.45923   0.81277   1.000
    H23     H    0.53539   0.45916   0.81270   1.000
    H24     H    0.03530   0.45603   0.18643   1.000
    H25     H    0.53594   0.45642   0.18601   1.000
    H26     H    0.02493   0.57359   0.30340   1.000
    H27     H    0.52594   0.57403   0.30293   1.000
    H28     H    0.22482   0.42285   0.19310   1.000
    H29     H    0.72519   0.41631   0.19788   1.000
    H30     H    0.21481   0.54047   0.31004   1.000
    H31     H    0.71482   0.53382   0.31489   1.000
    C32     C    0.13115   0.06363   0.81337   1.000
    C33     C    0.63087   0.06640   0.81185   1.000
    C34     C    0.21619   0.02048   0.78304   1.000
    C35     C    0.71635   0.02659   0.77892   1.000
    C36     C    0.21060   0.95544   0.71835   1.000
    C37     C    0.71081   0.96151   0.71428   1.000
    C38     C    0.04040   0.04077   0.77815   1.000
    C39     C    0.53976   0.04049   0.77910   1.000
    C40     C    0.03483   0.97575   0.71345   1.000
    C41     C    0.53424   0.97540   0.71449   1.000
    C42     C    0.11986   0.93261   0.68313   1.000
    C43     C    0.61968   0.93532   0.68180   1.000
    C44     C    0.11982   0.93324   0.31360   1.000
    C45     C    0.61965   0.93077   0.31247   1.000
    C46     C    0.03471   0.97593   0.28307   1.000
    C47     C    0.53494   0.97553   0.28341   1.000
    C48     C    0.04026   0.04023   0.21784   1.000
    C49     C    0.54049   0.03976   0.21800   1.000
    C50     C    0.21060   0.95568   0.27836   1.000
    C51     C    0.71000   0.95096   0.27524   1.000
    C52     C    0.21616   0.01997   0.21312   1.000
    C53     C    0.71556   0.01520   0.20993   1.000
    C54     C    0.13105   0.06267   0.18250   1.000
    C55     C    0.63088   0.06017   0.18103   1.000
    C56     C    0.36922   0.56240   0.68286   1.000
    C57     C    0.86981   0.56558   0.68515   1.000
    C58     C    0.28432   0.51898   0.71313   1.000
    C59     C    0.78456   0.52410   0.71683   1.000
    C60     C    0.29004   0.45480   0.77846   1.000
    C61     C    0.79013   0.45989   0.78215   1.000
    C62     C    0.45995   0.54068   0.71873   1.000
    C63     C    0.96072   0.54221   0.71981   1.000
    C64     C    0.46566   0.47650   0.78406   1.000
    C65     C    0.96627   0.47798   0.78510   1.000
    C66     C    0.38077   0.43312   0.81437   1.000
    C67     C    0.88105   0.43625   0.81659   1.000
    C68     C    0.38091   0.43275   0.18313   1.000
    C69     C    0.88080   0.42948   0.18559   1.000
    C70     C    0.46615   0.47521   0.21380   1.000
    C71     C    0.96569   0.47348   0.21516   1.000
    C72     C    0.46068   0.54038   0.27836   1.000
    C73     C    0.96001   0.53860   0.27976   1.000
    C74     C    0.29007   0.45647   0.21772   1.000
    C75     C    0.79016   0.45125   0.22150   1.000
    C76     C    0.28460   0.52164   0.28220   1.000
    C77     C    0.78447   0.51636   0.28617   1.000
    C78     C    0.36984   0.56397   0.31306   1.000
    C79     C    0.86932   0.56060   0.31555   1.000
loop_
    _geom_bond_atom_site_label_1
    _geom_bond_atom_site_label_2
    _geom_bond_distance
    _geom_bond_site_symmetry_2
    _ccdc_geom_bond_type
    H15    C53       1.08881      .   S
    C55    C53       1.40450      .   S
    C55    C49       1.40404      .   S
    C54    C52       1.40443      .   S
    C54    C48       1.40436      .   S
    C68    C70       1.40478      .   S
    C68    C74       1.40444      .   S
    H14    C52       1.08931      .   S
    C69    C71       1.40439      .   S
    C69    C75       1.40411      .   S
    H25    C70       1.08874      .   S
    H24    C71       1.08828  1_455   S
    H28    C74       1.08875      .   S
    H11    C48       1.08839  1_655   S
    H10    C49       1.08833      .   S
    H29    C75       1.08841      .   S
    C53    C51       1.38955  1_545   S
    C52    C50       1.38918  1_545   S
    C70    C72       1.38920      .   S
    C71    C73       1.38932      .   S
    C74    C76       1.38818      .   S
    C48    C46       1.38917  1_545   S
    C49    C47       1.39066  1_545   S
    C75    C77       1.39009      .   S
    C51    H13       1.08877      .   S
    C51    C45       1.40455      .   S
    C50    H12       1.08879      .   S
    C50    C44       1.40366      .   S
    C72    H27       1.08877      .   S
    C72    C78       1.40460      .   S
    C73    H26       1.08827  1_655   S
    C73    C79       1.40458      .   S
    C76    H30       1.08915      .   S
    C76    C78       1.40520      .   S
    C46    H9        1.08835  1_455   S
    C46    C44       1.40372      .   S
    C47    C45       1.40429      .   S
    C47    H8        1.08875      .   S
    C77    H31       1.08879      .   S
    C77    C79       1.40445      .   S
    C43    C37       1.40418      .   S
    C43    C41       1.40433      .   S
    C56    C58       1.40460      .   S
    C56    C62       1.40483      .   S
    C42    C40       1.40439      .   S
    C42    C36       1.40442      .   S
    H16    C58       1.08876      .   S
    C57    C59       1.40460      .   S
    C57    C63       1.40454      .   S
    H7     C40       1.08832  1_655   S
    H3     C37       1.08874      .   S
    H6     C41       1.08871      .   S
    H17    C59       1.08864      .   S
    H2     C36       1.08874      .   S
    H21    C62       1.08871      .   S
    H20    C63       1.08842  1_455   S
    C58    C60       1.38931      .   S
    C40    C38       1.38962  1_565   S
    C37    C35       1.38939  1_565   S
    C41    C39       1.38913  1_565   S
    C59    C61       1.38938      .   S
    C36    C34       1.38963  1_565   S
    C62    C64       1.38932      .   S
    C63    C65       1.38918      .   S
    C38    H5        1.08843  1_455   S
    C38    C32       1.40459      .   S
    C60    H18       1.08874      .   S
    C60    C66       1.40486      .   S
    C35    H1        1.08864      .   S
    C35    C33       1.40462      .   S
    C39    H4        1.08890      .   S
    C39    C33       1.40455      .   S
    C61    H19       1.08871      .   S
    C61    C67       1.40438      .   S
    C34    H0        1.08870      .   S
    C34    C32       1.40465      .   S
    C64    H23       1.08875      .   S
    C64    C66       1.40457      .   S
    C65    H22       1.08851  1_655   S
    C65    C67       1.40474      .   S
