# CIF file generated by openbabel 2.4.90, see http://openbabel.sf.net
data_I
_chemical_name_common ''
_cell_length_a 13.72
_cell_length_b 14.236
_cell_length_c 15.975
_cell_angle_alpha 90.004
_cell_angle_beta 89.996
_cell_angle_gamma 89.99
_space_group_name_H-M_alt 'P 1'
_space_group_name_Hall 'P 1'
loop_
    _symmetry_equiv_pos_as_xyz
    x,y,z
loop_
    _atom_site_label
    _atom_site_type_symbol
    _atom_site_fract_x
    _atom_site_fract_y
    _atom_site_fract_z
    _atom_site_occupancy
    C0      C    0.13704   0.13315   0.88279   1.000
    C1      C    0.63680   0.13530   0.88168   1.000
    C2      C    0.11394   0.86291   0.61375   1.000
    C3      C    0.61372   0.86495   0.61300   1.000
    C4      C    0.11381   0.86412   0.38340   1.000
    C5      C    0.61393   0.86225   0.38270   1.000
    C6      C    0.13690   0.13168   0.11282   1.000
    C7      C    0.63689   0.12972   0.11167   1.000
    C8      C    0.36329   0.63129   0.61310   1.000
    C9      C    0.86388   0.63379   0.61486   1.000
    C10     C    0.38673   0.36430   0.88420   1.000
    C11     C    0.88702   0.36668   0.88587   1.000
    C12     C    0.38676   0.36303   0.11404   1.000
    C13     C    0.88669   0.36060   0.11580   1.000
    C14     C    0.36393   0.63329   0.38246   1.000
    C15     C    0.86335   0.63070   0.38435   1.000
