# CIF file generated by openbabel 2.4.90, see http://openbabel.sf.net
data_I
_chemical_name_common ''
_cell_length_a 13.72
_cell_length_b 14.236
_cell_length_c 15.975
_cell_angle_alpha 90.004
_cell_angle_beta 89.996
_cell_angle_gamma 89.99
_space_group_name_H-M_alt 'P 1'
_space_group_name_Hall 'P 1'
loop_
    _symmetry_equiv_pos_as_xyz
    x,y,z
loop_
    _atom_site_label
    _atom_site_type_symbol
    _atom_site_fract_x
    _atom_site_fract_y
    _atom_site_fract_z
    _atom_site_occupancy
    Zr0     Zr   0.28100   0.23426   0.99849   1.000
    Zr1     Zr   0.78114   0.23439   0.99845   1.000
    Zr2     Zr   0.46926   0.76096   0.49895   1.000
    Zr3     Zr   0.96923   0.76095   0.49799   1.000
    Zr4     Zr   0.21945   0.73334   0.49800   1.000
    Zr5     Zr   0.71945   0.73334   0.49886   1.000
    Zr6     Zr   0.03119   0.26195   0.99852   1.000
    Zr7     Zr   0.53117   0.26187   0.99900   1.000
    Zr8     Zr   0.39189   0.19284   0.99856   1.000
    Zr9     Zr   0.89200   0.19293   0.99680   1.000
    Zr10    Zr   0.35839   0.80261   0.49913   1.000
    Zr11    Zr   0.85839   0.80268   0.49789   1.000
    Zr12    Zr   0.10849   0.69188   0.49717   1.000
    Zr13    Zr   0.60848   0.69186   0.49970   1.000
    Zr14    Zr   0.14196   0.30378   0.99933   1.000
    Zr15    Zr   0.64184   0.30384   0.99986   1.000
    O16     O    0.03886   0.72641   0.49758   1.000
    O17     O    0.16397   0.71261   0.49758   1.000
    O18     O    0.91381   0.78182   0.49794   1.000
    O19     O    0.78892   0.76801   0.49837   1.000
    O20     O    0.28892   0.76798   0.49856   1.000
    O21     O    0.66397   0.71260   0.49928   1.000
    O22     O    0.41383   0.78178   0.49904   1.000
    O23     O    0.53887   0.72641   0.49932   1.000
    O24     O    0.83657   0.21366   0.99762   1.000
    O25     O    0.96160   0.22744   0.99766   1.000
    O26     O    0.71149   0.26912   0.99915   1.000
    O27     O    0.33645   0.21355   0.99852   1.000
    O28     O    0.21148   0.26902   0.99891   1.000
    O29     O    0.08657   0.28287   0.99892   1.000
    O30     O    0.46153   0.22736   0.99878   1.000
    O31     O    0.58651   0.28286   0.99943   1.000
    N32     N    0.12544   0.99796   0.24809   1.000
    N33     N    0.37499   0.49774   0.74859   1.000
    N34     N    0.37538   0.49842   0.24803   1.000
    N35     N    0.62526   0.99539   0.24669   1.000
    N36     N    0.87507   0.49495   0.25063   1.000
    N37     N    0.12551   0.99810   0.74825   1.000
    N38     N    0.62528   0.00096   0.74672   1.000
    N39     N    0.87542   0.50101   0.75095   1.000
    C40     C    0.63819   0.15344   0.90002   1.000
    O41     O    0.63388   0.10218   0.84838   1.000
    O42     O    0.59097   0.18436   0.92710   1.000
    O43     O    0.69474   0.17441   0.92687   1.000
    C44     C    0.38810   0.34611   0.90247   1.000
    O45     O    0.34089   0.31387   0.92838   1.000
    O46     O    0.44464   0.32478   0.92926   1.000
    O47     O    0.38374   0.39717   0.85070   1.000
    C48     C    0.88847   0.34825   0.90393   1.000
    O49     O    0.84117   0.31592   0.92984   1.000
    O50     O    0.94497   0.32593   0.92981   1.000
    O51     O    0.88410   0.39974   0.85251   1.000
    C52     C    0.13849   0.15149   0.90096   1.000
    O53     O    0.09125   0.18337   0.92731   1.000
    O54     O    0.13415   0.09987   0.84956   1.000
    O55     O    0.19490   0.17250   0.92792   1.000
    C56     C    0.88805   0.34247   0.09749   1.000
    O57     O    0.94461   0.32209   0.07008   1.000
    O58     O    0.84090   0.31117   0.07082   1.000
    O59     O    0.88373   0.39373   0.14908   1.000
    C60     C    0.13832   0.14991   0.09461   1.000
    O61     O    0.13401   0.09874   0.14624   1.000
    O62     O    0.19481   0.17168   0.06828   1.000
    O63     O    0.09107   0.18180   0.06834   1.000
    C64     C    0.63828   0.14812   0.09359   1.000
    O65     O    0.59108   0.18087   0.06806   1.000
    O66     O    0.69477   0.16998   0.06717   1.000
    O67     O    0.63393   0.09665   0.14505   1.000
    C68     C    0.38820   0.34460   0.09596   1.000
    O69     O    0.38390   0.39638   0.14713   1.000
    O70     O    0.34094   0.31315   0.06932   1.000
    O71     O    0.44476   0.32318   0.06947   1.000
    C72     C    0.61261   0.84429   0.40102   1.000
    O73     O    0.55601   0.82329   0.42825   1.000
    O74     O    0.61682   0.89512   0.34908   1.000
    O75     O    0.65975   0.81223   0.42730   1.000
    C76     C    0.36248   0.65153   0.40071   1.000
    O77     O    0.30589   0.67268   0.42729   1.000
    O78     O    0.36680   0.60003   0.34930   1.000
    O79     O    0.40964   0.68275   0.42757   1.000
    C80     C    0.11239   0.84600   0.40148   1.000
    O81     O    0.15964   0.81399   0.42789   1.000
    O82     O    0.05576   0.82405   0.42784   1.000
    O83     O    0.11676   0.89716   0.34989   1.000
    C84     C    0.11257   0.84463   0.59571   1.000
    O85     O    0.05596   0.82347   0.56862   1.000
    O86     O    0.11689   0.89628   0.64703   1.000
    O87     O    0.15972   0.81249   0.56943   1.000
    C88     C    0.61228   0.84648   0.59518   1.000
    O89     O    0.55568   0.82432   0.56894   1.000
    O90     O    0.61663   0.89852   0.64612   1.000
    O91     O    0.65955   0.81436   0.56882   1.000
    C92     C    0.86197   0.64921   0.40238   1.000
    O93     O    0.80557   0.67056   0.42916   1.000
    O94     O    0.86634   0.59726   0.35134   1.000
    O95     O    0.90921   0.68147   0.42813   1.000
    C96     C    0.86244   0.65176   0.59639   1.000
    O97     O    0.90961   0.68288   0.56944   1.000
    O98     O    0.80587   0.67282   0.56973   1.000
    O99     O    0.86679   0.60105   0.64843   1.000
    C100    C    0.36193   0.64950   0.59481   1.000
    O101    O    0.40919   0.68164   0.56894   1.000
    O102    O    0.36628   0.59840   0.64655   1.000
    O103    O    0.30554   0.67074   0.56793   1.000
loop_
    _geom_bond_atom_site_label_1
    _geom_bond_atom_site_label_2
    _geom_bond_distance
    _geom_bond_site_symmetry_2
    _ccdc_geom_bond_type
    Zr12   O16       1.07432      .   S
    Zr3    O16       1.07432  1_655   S
    Zr12   O17       0.81648      .   S
    Zr4    O17       0.81648      .   S
    Zr11   O18       0.81629      .   S
    Zr3    O18       0.81629      .   S
    Zr11   O19       1.07346      .   S
    Zr5    O19       1.07346      .   S
    Zr4    O20       1.07322      .   S
    Zr10   O20       1.07322      .   S
    Zr5    O21       0.81657      .   S
    Zr13   O21       0.81657      .   S
    Zr2    O22       0.81626      .   S
    Zr10   O22       0.81626      .   S
    Zr2    O23       1.07419      .   S
    Zr13   O23       1.07419      .   S
    Zr9    O24       0.81581      .   S
    Zr1    O24       0.81581      .   S
    Zr9    O25       1.07396      .   S
    Zr6    O25       1.07396  1_455   S
    Zr1    O26       1.07591      .   S
    Zr15   O26       1.07591      .   S
    Zr0    O27       0.81579      .   S
    Zr8    O27       0.81579      .   S
    Zr0    O28       1.07453      .   S
    Zr14   O28       1.07453      .   S
    Zr6    O29       0.81620      .   S
    Zr14   O29       0.81620      .   S
    Zr8    O30       1.07447      .   S
    Zr7    O30       1.07447      .   S
    Zr7    O31       0.81591      .   S
    Zr15   O31       0.81591      .   S
    C40    O41       1.10300      .   S
    N38    O41       2.17420      .   S
    C40    O42       0.89467      .   S
    Zr7    O42       1.79144      .   S
    C40    O43       0.93553      .   S
    Zr1    O43       1.85536      .   S
    C44    O45       0.89531      .   S
    Zr0    O45       1.79286      .   S
    C44    O46       0.93662      .   S
    Zr7    O46       1.85812      .   S
    C44    O47       1.10263      .   S
    N33    O47       2.17381      .   S
    C48    O49       0.89680      .   S
    Zr1    O49       1.79639      .   S
    C48    O50       0.93426      .   S
    Zr6    O50       1.85302  1_455   S
    C48    O51       1.10265      .   S
    N39    O51       2.17374      .   S
    C52    O53       0.89613      .   S
    Zr6    O53       1.79556      .   S
    C52    O54       1.10349      .   S
    N37    O54       2.17533  1_565   S
    C52    O55       0.93493      .   S
    Zr0    O55       1.85466      .   S
    C56    O57       0.93690      .   S
    Zr6    O57       1.85753  1_456   S
    C56    O58       0.89374      .   S
    Zr1    O58       1.78987  1_556   S
    C56    O59       1.10231      .   S
    N36    O59       2.17303      .   S
    C60    O61       1.10212      .   S
    N32    O61       2.17253  1_565   S
    C60    O62       0.93478      .   S
    Zr0    O62       1.85343  1_556   S
    C60    O63       0.89575      .   S
    Zr6    O63       1.79469  1_556   S
    C64    O65       0.89611      .   S
    Zr7    O65       1.79505  1_556   S
    C64    O66       0.93579      .   S
    Zr1    O66       1.85756  1_556   S
    C64    O67       1.10300      .   S
    N35    O67       2.17446  1_565   S
    C68    O69       1.10227      .   S
    N34    O69       2.17293      .   S
    C68    O70       0.89562      .   S
    Zr0    O70       1.79393  1_556   S
    C68    O71       0.93500      .   S
    Zr7    O71       1.85312  1_556   S
    C72    O73       0.93902      .   S
    Zr2    O73       1.86543      .   S
    C72    O74       1.10253      .   S
    N35    O74       2.17414      .   S
    C72    O75       0.89611      .   S
    Zr5    O75       1.79960      .   S
    C76    O77       0.93465      .   S
    Zr4    O77       1.85139      .   S
    C76    O78       1.10243      .   S
    N34    O78       2.17322      .   S
    C76    O79       0.89473      .   S
    Zr2    O79       1.79141      .   S
    C80    O81       0.89769      .   S
    Zr4    O81       1.80170      .   S
    C80    O82       0.93744      .   S
    Zr3    O82       1.86338  1_655   S
    C80    O83       1.10154      .   S
    N32    O83       2.17212      .   S
    C84    O85       0.93884      .   S
    Zr3    O85       1.86588  1_655   S
    C84    O86       1.10278      .   S
    N37    O86       2.17476      .   S
    C84    O87       0.89667      .   S
    Zr4    O87       1.80071      .   S
    C88    O89       0.93714      .   S
    Zr2    O89       1.86284      .   S
    C88    O90       1.10203      .   S
    N38    O90       2.17340  1_545   S
    C88    O91       0.89830      .   S
    Zr5    O91       1.80388      .   S
    C92    O93       0.93485      .   S
    Zr5    O93       1.85316      .   S
    C92    O94       1.10249      .   S
    N36    O94       2.17329      .   S
    C92    O95       0.89455      .   S
    Zr3    O95       1.79004      .   S
    C96    O97       0.89462      .   S
    Zr3    O97       1.79102      .   S
    C96    O98       0.93471      .   S
    Zr5    O98       1.85205      .   S
    C96    O99       1.10268      .   S
    N39    O99       2.17363      .   S
    C100   O101      0.89478      .   S
    Zr2    O101      1.79023      .   S
    C100   O102      1.10275      .   S
    N33    O102      2.17383      .   S
    C100   O103      0.93502      .   S
    Zr4    O103      1.85405      .   S
