# CIF file generated by openbabel 2.4.90, see http://openbabel.sf.net
data_I
_chemical_name_common ''
_cell_length_a 13.72
_cell_length_b 14.236
_cell_length_c 15.975
_cell_angle_alpha 90.004
_cell_angle_beta 89.996
_cell_angle_gamma 89.99
_space_group_name_H-M_alt 'P 1'
_space_group_name_Hall 'P 1'
loop_
    _symmetry_equiv_pos_as_xyz
    x,y,z
loop_
    _atom_site_label
    _atom_site_type_symbol
    _atom_site_fract_x
    _atom_site_fract_y
    _atom_site_fract_z
    _atom_site_occupancy
    Zr0     Zr   0.28100   0.23426   0.99849   1.000
    Zr1     Zr   0.78114   0.23439   0.99845   1.000
    Zr2     Zr   0.46926   0.76096   0.49895   1.000
    Zr3     Zr   0.96923   0.76095   0.49799   1.000
    Zr4     Zr   0.21945   0.73334   0.49800   1.000
    Zr5     Zr   0.71945   0.73334   0.49886   1.000
    Zr6     Zr   0.03119   0.26195   0.99852   1.000
    Zr7     Zr   0.53117   0.26187   0.99900   1.000
    Zr8     Zr   0.13704   0.13315   0.88279   1.000
    Zr9     Zr   0.63680   0.13530   0.88168   1.000
    Zr10    Zr   0.11394   0.86291   0.61375   1.000
    Zr11    Zr   0.61372   0.86495   0.61300   1.000
    Zr12    Zr   0.11381   0.86412   0.38340   1.000
    Zr13    Zr   0.61393   0.86225   0.38270   1.000
    Zr14    Zr   0.13690   0.13168   0.11282   1.000
    Zr15    Zr   0.63689   0.12972   0.11167   1.000
    Zr16    Zr   0.36329   0.63129   0.61310   1.000
    Zr17    Zr   0.86388   0.63379   0.61486   1.000
    Zr18    Zr   0.38673   0.36430   0.88420   1.000
    Zr19    Zr   0.88702   0.36668   0.88587   1.000
    Zr20    Zr   0.38676   0.36303   0.11404   1.000
    Zr21    Zr   0.88669   0.36060   0.11580   1.000
    Zr22    Zr   0.36393   0.63329   0.38246   1.000
    Zr23    Zr   0.86335   0.63070   0.38435   1.000
    Zr24    Zr   0.39189   0.19284   0.99856   1.000
    Zr25    Zr   0.89200   0.19293   0.99680   1.000
    Zr26    Zr   0.22160   0.15278   0.91129   1.000
    Zr27    Zr   0.72145   0.15635   0.90900   1.000
    Zr28    Zr   0.02946   0.84365   0.58508   1.000
    Zr29    Zr   0.52890   0.84336   0.58647   1.000
    Zr30    Zr   0.05683   0.16854   0.90880   1.000
    Zr31    Zr   0.55633   0.16868   0.90937   1.000
    Zr32    Zr   0.19430   0.82735   0.58830   1.000
    Zr33    Zr   0.69420   0.83114   0.58606   1.000
    Zr34    Zr   0.35839   0.80261   0.49913   1.000
    Zr35    Zr   0.85839   0.80268   0.49789   1.000
    Zr36    Zr   0.02902   0.84324   0.41043   1.000
    Zr37    Zr   0.52955   0.84364   0.41203   1.000
    Zr38    Zr   0.22160   0.15265   0.08540   1.000
    Zr39    Zr   0.72137   0.14929   0.08304   1.000
    Zr40    Zr   0.19432   0.83063   0.41060   1.000
    Zr41    Zr   0.69434   0.82698   0.40832   1.000
    Zr42    Zr   0.05645   0.16541   0.08561   1.000
    Zr43    Zr   0.55658   0.16537   0.08606   1.000
    Zr44    Zr   0.10849   0.69188   0.49717   1.000
    Zr45    Zr   0.60848   0.69186   0.49970   1.000
    Zr46    Zr   0.27885   0.65062   0.58412   1.000
    Zr47    Zr   0.77915   0.65442   0.58729   1.000
    Zr48    Zr   0.47120   0.34502   0.91311   1.000
    Zr49    Zr   0.97176   0.34526   0.91285   1.000
    Zr50    Zr   0.44365   0.66659   0.58720   1.000
    Zr51    Zr   0.94431   0.66705   0.58701   1.000
    Zr52    Zr   0.30636   0.32901   0.91010   1.000
    Zr53    Zr   0.80662   0.33280   0.91307   1.000
    Zr54    Zr   0.14196   0.30378   0.99933   1.000
    Zr55    Zr   0.64184   0.30384   0.99986   1.000
    Zr56    Zr   0.47148   0.34164   0.08697   1.000
    Zr57    Zr   0.97113   0.34146   0.08683   1.000
    Zr58    Zr   0.27916   0.65432   0.40974   1.000
    Zr59    Zr   0.77889   0.65045   0.41302   1.000
    Zr60    Zr   0.30635   0.32915   0.08687   1.000
    Zr61    Zr   0.80634   0.32535   0.08984   1.000
    Zr62    Zr   0.44435   0.66699   0.40992   1.000
    Zr63    Zr   0.94367   0.66649   0.40977   1.000
    O64     O    0.67913   0.13950   0.09735   1.000
    O65     O    0.75126   0.19184   0.04074   1.000
    O66     O    0.17925   0.14216   0.09911   1.000
    O67     O    0.25130   0.19345   0.04194   1.000
    O68     O    0.09668   0.14855   0.09921   1.000
    O69     O    0.04382   0.21368   0.04206   1.000
    O70     O    0.59674   0.14754   0.09886   1.000
    O71     O    0.54388   0.21362   0.04253   1.000
    O72     O    0.92891   0.35103   0.10131   1.000
    O73     O    0.00116   0.30171   0.04267   1.000
    O74     O    0.34656   0.34609   0.10045   1.000
    O75     O    0.29368   0.28170   0.04268   1.000
    O76     O    0.42912   0.35233   0.10050   1.000
    O77     O    0.50133   0.30175   0.04298   1.000
    O78     O    0.84652   0.34298   0.10282   1.000
    O79     O    0.79374   0.27987   0.04414   1.000
    O80     O    0.32154   0.64380   0.39610   1.000
    O81     O    0.40414   0.65014   0.39619   1.000
    O82     O    0.65414   0.84462   0.39551   1.000
    O83     O    0.57174   0.85294   0.39736   1.000
    O84     O    0.07142   0.85368   0.39691   1.000
    O85     O    0.15407   0.84738   0.39700   1.000
    O86     O    0.90351   0.64860   0.39706   1.000
    O87     O    0.82112   0.64058   0.39868   1.000
    O88     O    0.70690   0.78016   0.45359   1.000
    O89     O    0.24931   0.69383   0.45387   1.000
    O90     O    0.95645   0.71372   0.45388   1.000
    O91     O    0.45680   0.71397   0.45443   1.000
    O92     O    0.99913   0.80210   0.45421   1.000
    O93     O    0.20689   0.78199   0.45430   1.000
    O94     O    0.49941   0.80230   0.45549   1.000
    O95     O    0.74917   0.69190   0.45594   1.000
    O96     O    0.03886   0.72641   0.49758   1.000
    O97     O    0.16397   0.71261   0.49758   1.000
    O98     O    0.91381   0.78182   0.49794   1.000
    O99     O    0.78892   0.76801   0.49837   1.000
    O100    O    0.99935   0.80230   0.54153   1.000
    O101    O    0.95677   0.71400   0.54250   1.000
    O102    O    0.28892   0.76798   0.49856   1.000
    O103    O    0.24915   0.69198   0.54106   1.000
    O104    O    0.20687   0.78034   0.54315   1.000
    O105    O    0.66397   0.71260   0.49928   1.000
    O106    O    0.70683   0.78224   0.54246   1.000
    O107    O    0.74930   0.69388   0.54307   1.000
    O108    O    0.41383   0.78178   0.49904   1.000
    O109    O    0.53887   0.72641   0.49932   1.000
    O110    O    0.49908   0.80216   0.54271   1.000
    O111    O    0.45646   0.71377   0.54307   1.000
    O112    O    0.32107   0.64096   0.59861   1.000
    O113    O    0.07170   0.85328   0.59941   1.000
    O114    O    0.65396   0.84804   0.59953   1.000
    O115    O    0.57131   0.85416   0.59973   1.000
    O116    O    0.90409   0.65042   0.60093   1.000
    O117    O    0.40347   0.64894   0.60015   1.000
    O118    O    0.82151   0.64411   0.60107   1.000
    O119    O    0.15412   0.84513   0.60102   1.000
    O120    O    0.67912   0.14583   0.89534   1.000
    O121    O    0.59656   0.15199   0.89552   1.000
    O122    O    0.09693   0.15084   0.89579   1.000
    O123    O    0.17932   0.14296   0.89704   1.000
    O124    O    0.34655   0.34665   0.89715   1.000
    O125    O    0.42897   0.35466   0.89865   1.000
    O126    O    0.92939   0.35597   0.89936   1.000
    O127    O    0.84682   0.34974   0.89947   1.000
    O128    O    0.04401   0.21524   0.95366   1.000
    O129    O    0.75129   0.19537   0.95372   1.000
    O130    O    0.54375   0.21527   0.95418   1.000
    O131    O    0.29368   0.28163   0.95429   1.000
    O132    O    0.25130   0.19352   0.95489   1.000
    O133    O    0.00147   0.30361   0.95568   1.000
    O134    O    0.79388   0.28360   0.95576   1.000
    O135    O    0.50119   0.30345   0.95605   1.000
    O136    O    0.83657   0.21366   0.99762   1.000
    O137    O    0.96160   0.22744   0.99766   1.000
    O138    O    0.71149   0.26912   0.99915   1.000
    O139    O    0.33645   0.21355   0.99852   1.000
    O140    O    0.21148   0.26902   0.99891   1.000
    O141    O    0.08657   0.28287   0.99892   1.000
    O142    O    0.46153   0.22736   0.99878   1.000
    O143    O    0.58651   0.28286   0.99943   1.000
    N144    N    0.12544   0.99796   0.24809   1.000
    O145    O    0.12971   0.04757   0.19787   1.000
    O146    O    0.12113   0.94832   0.29829   1.000
    N147    N    0.37499   0.49774   0.74859   1.000
    O148    O    0.37062   0.54729   0.69829   1.000
    O149    O    0.37937   0.44822   0.79894   1.000
    N150    N    0.37538   0.49842   0.24803   1.000
    O151    O    0.37961   0.44816   0.19831   1.000
    O152    O    0.37113   0.54853   0.29790   1.000
    N153    N    0.62526   0.99539   0.24669   1.000
    O154    O    0.62957   0.04517   0.19652   1.000
    O155    O    0.62103   0.94595   0.29714   1.000
    N156    N    0.87507   0.49495   0.25063   1.000
    O157    O    0.87941   0.44499   0.20066   1.000
    O158    O    0.87070   0.54530   0.30029   1.000
    N159    N    0.12551   0.99810   0.74825   1.000
    O160    O    0.12121   0.94793   0.69834   1.000
    O161    O    0.12981   0.04825   0.79816   1.000
    N162    N    0.62528   0.00096   0.74672   1.000
    O163    O    0.62956   0.05091   0.79674   1.000
    O164    O    0.62099   0.95055   0.69706   1.000
    N165    N    0.87542   0.50101   0.75095   1.000
    O166    O    0.87973   0.45124   0.80109   1.000
    O167    O    0.87113   0.55035   0.70048   1.000
loop_
    _geom_bond_atom_site_label_1
    _geom_bond_atom_site_label_2
    _geom_bond_distance
    _geom_bond_site_symmetry_2
    _ccdc_geom_bond_type
    Zr39   O64       0.63841      .   S
    Zr15   O64       0.63841      .   S
    Zr39   O65       0.99584      .   S
    Zr1    O65       0.99584  1_556   S
    Zr38   O66       0.63870      .   S
    Zr14   O66       0.63870      .   S
    Zr38   O67       0.99271      .   S
    Zr0    O67       0.99271  1_556   S
    Zr42   O68       0.63986      .   S
    Zr14   O68       0.63986      .   S
    Zr42   O69       0.99305      .   S
    Zr6    O69       0.99305  1_556   S
    Zr43   O70       0.64011      .   S
    Zr15   O70       0.64011      .   S
    Zr43   O71       0.99289      .   S
    Zr7    O71       0.99289  1_556   S
    Zr57   O72       0.63841      .   S
    Zr21   O72       0.63841      .   S
    Zr57   O73       0.99372  1_655   S
    Zr6    O73       0.99372  1_556   S
    Zr60   O74       0.64001      .   S
    Zr20   O74       0.64001      .   S
    Zr60   O75       0.99235      .   S
    Zr0    O75       0.99235  1_556   S
    Zr56   O76       0.63847      .   S
    Zr20   O76       0.63847      .   S
    Zr56   O77       0.99178      .   S
    Zr7    O77       0.99178  1_556   S
    Zr61   O78       0.64014      .   S
    Zr21   O78       0.64014      .   S
    Zr61   O79       0.99093      .   S
    Zr1    O79       0.99093  1_556   S
    Zr22   O80       0.63872      .   S
    Zr58   O80       0.63872      .   S
    Zr22   O81       0.64036      .   S
    Zr62   O81       0.64036      .   S
    Zr13   O82       0.63967      .   S
    Zr41   O82       0.63967      .   S
    Zr13   O83       0.63835      .   S
    Zr37   O83       0.63835      .   S
    Zr12   O84       0.63801      .   S
    Zr36   O84       0.63801      .   S
    Zr12   O85       0.63958      .   S
    Zr40   O85       0.63958      .   S
    Zr23   O86       0.64011      .   S
    Zr63   O86       0.64011      .   S
    Zr23   O87       0.63863      .   S
    Zr59   O87       0.63863      .   S
    Zr41   O88       0.99846      .   S
    Zr5    O88       0.99846      .   S
    Zr58   O89       0.99045      .   S
    Zr4    O89       0.99045      .   S
    Zr63   O90       0.98963      .   S
    Zr3    O90       0.98963      .   S
    Zr62   O91       0.99112      .   S
    Zr2    O91       0.99112      .   S
    Zr36   O92       1.00030  1_455   S
    Zr3    O92       1.00030      .   S
    Zr40   O93       0.99833      .   S
    Zr4    O93       0.99833      .   S
    Zr37   O94       0.99977      .   S
    Zr2    O94       0.99977      .   S
    Zr59   O95       0.99215      .   S
    Zr5    O95       0.99215      .   S
    Zr44   O96       1.07432      .   S
    Zr3    O96       1.07432  1_655   S
    Zr44   O97       0.81648      .   S
    Zr4    O97       0.81648      .   S
    Zr35   O98       0.81629      .   S
    Zr3    O98       0.81629      .   S
    Zr35   O99       1.07346      .   S
    Zr5    O99       1.07346      .   S
    Zr3    O100      1.00060      .   S
    Zr28   O100      1.00060  1_455   S
    Zr3    O101      0.99077      .   S
    Zr51   O101      0.99077      .   S
    Zr4    O102      1.07322      .   S
    Zr34   O102      1.07322      .   S
    Zr4    O103      0.99298      .   S
    Zr46   O103      0.99298      .   S
    Zr4    O104      0.99880      .   S
    Zr32   O104      0.99880      .   S
    Zr5    O105      0.81657      .   S
    Zr45   O105      0.81657      .   S
    Zr5    O106      0.99977      .   S
    Zr33   O106      0.99977      .   S
    Zr5    O107      0.99107      .   S
    Zr47   O107      0.99107      .   S
    Zr2    O108      0.81626      .   S
    Zr34   O108      0.81626      .   S
    Zr2    O109      1.07419      .   S
    Zr45   O109      1.07419      .   S
    Zr2    O110      1.00011      .   S
    Zr29   O110      1.00011      .   S
    Zr2    O111      0.98948      .   S
    Zr50   O111      0.98948      .   S
    Zr46   O112      0.63873      .   S
    Zr16   O112      0.63873      .   S
    Zr28   O113      0.63810      .   S
    Zr10   O113      0.63810      .   S
    Zr33   O114      0.63952      .   S
    Zr11   O114      0.63952      .   S
    Zr29   O115      0.63804      .   S
    Zr11   O115      0.63804      .   S
    Zr51   O116      0.64031      .   S
    Zr17   O116      0.64031      .   S
    Zr50   O117      0.64021      .   S
    Zr16   O117      0.64021      .   S
    Zr47   O118      0.63865      .   S
    Zr17   O118      0.63865      .   S
    Zr32   O119      0.63966      .   S
    Zr10   O119      0.63966      .   S
    Zr9    O120      0.63820      .   S
    Zr27   O120      0.63820      .   S
    Zr9    O121      0.64031      .   S
    Zr31   O121      0.64031      .   S
    Zr8    O122      0.63978      .   S
    Zr30   O122      0.63978      .   S
    Zr8    O123      0.63867      .   S
    Zr26   O123      0.63867      .   S
    Zr18   O124      0.64022      .   S
    Zr52   O124      0.64022      .   S
    Zr18   O125      0.63868      .   S
    Zr48   O125      0.63868      .   S
    Zr19   O126      0.63845      .   S
    Zr49   O126      0.63845      .   S
    Zr19   O127      0.63999      .   S
    Zr53   O127      0.63999      .   S
    Zr30   O128      0.99323      .   S
    Zr6    O128      0.99323      .   S
    Zr27   O129      0.99340      .   S
    Zr1    O129      0.99340      .   S
    Zr31   O130      0.99105      .   S
    Zr7    O130      0.99105      .   S
    Zr52   O131      0.99180      .   S
    Zr0    O131      0.99180      .   S
    Zr26   O132      0.99379      .   S
    Zr0    O132      0.99379      .   S
    Zr49   O133      0.99304  1_655   S
    Zr6    O133      0.99304      .   S
    Zr53   O134      0.99318      .   S
    Zr1    O134      0.99318      .   S
    Zr48   O135      0.99513      .   S
    Zr7    O135      0.99513      .   S
    Zr25   O136      0.81581      .   S
    Zr1    O136      0.81581      .   S
    Zr25   O137      1.07396      .   S
    Zr6    O137      1.07396  1_455   S
    Zr1    O138      1.07591      .   S
    Zr55   O138      1.07591      .   S
    Zr0    O139      0.81579      .   S
    Zr24   O139      0.81579      .   S
    Zr0    O140      1.07453      .   S
    Zr54   O140      1.07453      .   S
    Zr6    O141      0.81620      .   S
    Zr54   O141      0.81620      .   S
    Zr24   O142      1.07447      .   S
    Zr7    O142      1.07447      .   S
    Zr7    O143      0.81591      .   S
    Zr55   O143      0.81591      .   S
    N144   O145      1.07041  1_565   S
    Zr14   O145      1.81385      .   S
    N144   O146      1.07058      .   S
    Zr12   O146      1.81533      .   S
    N147   O148      1.07108      .   S
    Zr16   O148      1.81447      .   S
    N147   O149      1.07117      .   S
    Zr18   O149      1.81465      .   S
    N150   O151      1.07066      .   S
    Zr20   O151      1.81392      .   S
    N150   O152      1.07079      .   S
    Zr22   O152      1.81398      .   S
    N153   O154      1.07146  1_565   S
    Zr15   O154      1.81558      .   S
    N153   O155      1.07161      .   S
    Zr13   O155      1.81602      .   S
    N156   O157      1.07072      .   S
    Zr21   O157      1.81415      .   S
    N156   O158      1.07080      .   S
    Zr23   O158      1.81417      .   S
    N159   O160      1.07198      .   S
    Zr10   O160      1.81689      .   S
    N159   O161      1.07184  1_565   S
    Zr8    O161      1.81609      .   S
    N162   O163      1.07121      .   S
    Zr9    O163      1.81501      .   S
    N162   O164      1.07138  1_545   S
    Zr11   O164      1.81605      .   S
    N165   O166      1.07110      .   S
    Zr19   O166      1.81480      .   S
    N165   O167      1.07095      .   S
    Zr17   O167      1.81439      .   S
