# CIF file generated by openbabel 2.4.90, see http://openbabel.sf.net
data_I
_chemical_name_common ''
_cell_length_a 6.9295
_cell_length_b 13.793
_cell_length_c 21.991
_cell_angle_alpha 89.959
_cell_angle_beta 89.755
_cell_angle_gamma 89.82
_space_group_name_H-M_alt 'P 1'
_space_group_name_Hall 'P 1'
loop_
    _symmetry_equiv_pos_as_xyz
    x,y,z
loop_
    _atom_site_label
    _atom_site_type_symbol
    _atom_site_fract_x
    _atom_site_fract_y
    _atom_site_fract_z
    _atom_site_occupancy
    Zn0     Zn   0.78408   0.62921   0.96745   1.000
    Zn1     Zn   0.75047   0.11729   0.36771   1.000
    Zn2     Zn   0.21575   0.36732   0.46705   1.000
    Zn3     Zn   0.25122   0.38168   0.86688   1.000
    Zn4     Zn   0.71591   0.12910   0.96768   1.000
    Zn5     Zn   0.74330   0.61695   0.36778   1.000
    Zn6     Zn   0.28386   0.86806   0.46716   1.000
    Zn7     Zn   0.24778   0.87949   0.86684   1.000
    C8      C    0.45630   0.77420   0.96767   1.000
    C9      C    0.09861   0.77740   0.97511   1.000
    C10     C    0.58381   0.52684   0.86491   1.000
    C11     C    0.94198   0.52808   0.85939   1.000
    C12     C    0.54153   0.22211   0.46880   1.000
    C13     C    0.89947   0.22106   0.47466   1.000
    C14     C    0.41493   0.47075   0.36517   1.000
    C15     C    0.05681   0.47164   0.36039   1.000
    C16     C    0.04140   0.27563   0.96789   1.000
    C17     C    0.39921   0.27751   0.97497   1.000
    C18     C    0.91561   0.02633   0.86493   1.000
    C19     C    0.55728   0.02603   0.86089   1.000
    C20     C    0.95612   0.72256   0.46712   1.000
    C21     C    0.59826   0.72012   0.47595   1.000
    C22     C    0.08388   0.97224   0.36561   1.000
    C23     C    0.44211   0.00000   0.36037   1.000
    O24     O    0.46829   0.79552   0.91171   1.000
    O25     O    0.57452   0.72129   0.00000   1.000
    O26     O    0.05348   0.80842   0.92258   1.000
    O27     O    0.99953   0.71620   0.00517   1.000
    O28     O    0.56735   0.54901   0.92063   1.000
    O29     O    0.46639   0.47421   0.83531   1.000
    O30     O    0.98369   0.55793   0.91240   1.000
    O31     O    0.04137   0.46651   0.82942   1.000
    O32     O    0.52721   0.19962   0.41312   1.000
    O33     O    0.42429   0.27559   0.49847   1.000
    O34     O    0.94290   0.19126   0.42164   1.000
    O35     O    0.99912   0.28190   0.50446   1.000
    O36     O    0.43251   0.44643   0.42051   1.000
    O37     O    0.53205   0.52455   0.33596   1.000
    O38     O    0.01591   0.44186   0.41358   1.000
    O39     O    0.95738   0.53312   0.33062   1.000
    O40     O    0.02798   0.29929   0.91233   1.000
    O41     O    0.92487   0.22129   0.00000   1.000
    O42     O    0.44330   0.30824   0.92222   1.000
    O43     O    0.49956   0.21665   0.00493   1.000
    O44     O    0.93305   0.04951   0.92045   1.000
    O45     O    0.03303   0.97314   0.83521   1.000
    O46     O    0.51669   0.05438   0.91442   1.000
    O47     O    0.45822   0.96521   0.83074   1.000
    O48     O    0.96625   0.70066   0.41123   1.000
    O49     O    0.07535   0.77520   0.49601   1.000
    O50     O    0.55046   0.68782   0.42399   1.000
    O51     O    0.50058   0.78251   0.50567   1.000
    O52     O    0.06722   0.94988   0.42133   1.000
    O53     O    0.96600   0.02493   0.33602   1.000
    O54     O    0.48358   0.94141   0.41342   1.000
    O55     O    0.54095   0.03299   0.33053   1.000
loop_
    _geom_bond_atom_site_label_1
    _geom_bond_atom_site_label_2
    _geom_bond_distance
    _geom_bond_site_symmetry_2
    _ccdc_geom_bond_type
    O41    Zn4       2.05917  1_554   S
    O41    C16       1.30791  1_654   S
    O25    Zn0       2.05307  1_554   S
    O25    C8        1.30744  1_554   S
    O43    Zn4       2.08723  1_554   S
    O43    C17       1.27352  1_554   S
    O27    Zn0       2.09285  1_554   S
    O27    C9        1.27269  1_654   S
    O55    C23       1.05091      .   S
    O55    Zn1       2.03733      .   S
    O39    C15       1.27339  1_655   S
    O39    Zn5       2.04593      .   S
    O37    C14       1.27299      .   S
    O37    Zn5       2.06846      .   S
    O53    C22       1.27235  1_645   S
    O53    Zn1       2.07839      .   S
    C23    O54       1.44816  1_545   S
    C15    O38       1.27069      .   S
    C14    O36       1.26849      .   S
    C22    O52       1.26818      .   S
    Zn1    O32       2.15815      .   S
    Zn1    O34       2.06137      .   S
    Zn5    O48       2.15827      .   S
    Zn5    O50       2.06115      .   S
    O48    C20       1.26743      .   S
    O32    C12       1.26792      .   S
    O54    Zn6       2.08050      .   S
    O38    Zn2       2.08818      .   S
    O36    Zn2       2.11892      .   S
    O52    Zn6       2.13159      .   S
    O34    C13       1.27116      .   S
    O50    C21       1.27231      .   S
    Zn2    O33       2.04013      .   S
    Zn2    O35       2.07794  1_455   S
    C20    O49       1.27374  1_655   S
    Zn6    O49       2.03300      .   S
    Zn6    O51       2.08878      .   S
    C12    O33       1.27355      .   S
    C13    O35       1.27231      .   S
    C21    O51       1.27243      .   S
    O31    C11       1.27398  1_455   S
    O31    Zn3       2.03972      .   S
    O47    C19       1.27392  1_565   S
    O47    Zn7       2.03822      .   S
    O45    C18       1.27277  1_465   S
    O45    Zn7       2.08855      .   S
    O29    C10       1.27337      .   S
    O29    Zn3       2.08226      .   S
    C11    O30       1.27131      .   S
    C19    O46       1.27085      .   S
    C10    O28       1.26774      .   S
    C18    O44       1.26852      .   S
    Zn7    O24       2.15642      .   S
    Zn7    O26       2.06604      .   S
    Zn3    O40       2.16330      .   S
    Zn3    O42       2.06941      .   S
    O24    C8        1.26756      .   S
    O40    C16       1.26815      .   S
    O30    Zn0       2.07952      .   S
    O46    Zn4       2.08903      .   S
    O44    Zn4       2.12743      .   S
    O28    Zn0       2.13646      .   S
    O42    C17       1.27115      .   S
    O26    C9        1.27172      .   S
