# CIF file generated by openbabel 2.4.90, see http://openbabel.sf.net
data_I
_chemical_name_common ''
_cell_length_a 6.9295
_cell_length_b 13.793
_cell_length_c 21.991
_cell_angle_alpha 89.959
_cell_angle_beta 89.755
_cell_angle_gamma 89.82
_space_group_name_H-M_alt 'P 1'
_space_group_name_Hall 'P 1'
loop_
    _symmetry_equiv_pos_as_xyz
    x,y,z
loop_
    _atom_site_label
    _atom_site_type_symbol
    _atom_site_fract_x
    _atom_site_fract_y
    _atom_site_fract_z
    _atom_site_occupancy
    Zr0     Zr   0.24778   0.87949   0.86684   1.000
    Zr1     Zr   0.78408   0.62921   0.96745   1.000
    Zr2     Zr   0.75047   0.11729   0.36771   1.000
    Zr3     Zr   0.21575   0.36732   0.46705   1.000
    Zr4     Zr   0.25122   0.38168   0.86688   1.000
    Zr5     Zr   0.71591   0.12910   0.96768   1.000
    Zr6     Zr   0.74330   0.61695   0.36778   1.000
    Zr7     Zr   0.28386   0.86806   0.46716   1.000
    N8      N    0.75549   0.58414   0.81447   1.000
    N9      N    0.19625   0.62540   0.66688   1.000
    O10     O    0.21352   0.72920   0.74815   1.000
    O11     O    0.20155   0.52035   0.58571   1.000
    N12     N    0.80267   0.37215   0.16734   1.000
    O13     O    0.79759   0.47683   0.08607   1.000
    O14     O    0.78528   0.26818   0.24877   1.000
    N15     N    0.24249   0.41543   0.31470   1.000
    N16     N    0.30246   0.12581   0.66722   1.000
    O17     O    0.28578   0.23017   0.74839   1.000
    O18     O    0.29694   0.02078   0.58602   1.000
    N19     N    0.28831   0.83223   0.01912   1.000
    N20     N    0.71202   0.16520   0.51959   1.000
    N21     N    0.69522   0.87225   0.16767   1.000
    O22     O    0.70132   0.97691   0.08640   1.000
    O23     O    0.71083   0.76818   0.24905   1.000
    N24     N    0.25682   0.92947   0.31519   1.000
    N25     N    0.20903   0.33221   0.01951   1.000
    N26     N    0.74160   0.08306   0.81525   1.000
    N27     N    0.78994   0.66565   0.51952   1.000
    C28     C    0.01003   0.48221   0.36820   1.000
    O29     O    0.10274   0.45815   0.34905   1.000
    O30     O    0.06293   0.44340   0.40426   1.000
    O31     O    0.93019   0.52862   0.35870   1.000
    C32     C    0.99924   0.73281   0.45812   1.000
    O33     O    0.91477   0.70865   0.48038   1.000
    O34     O    0.92701   0.69581   0.42381   1.000
    O35     O    0.08942   0.77722   0.46985   1.000
    C36     C    0.45983   0.48058   0.37388   1.000
    O37     O    0.37241   0.45723   0.35248   1.000
    O38     O    0.39198   0.44373   0.40883   1.000
    O39     O    0.54875   0.52566   0.36288   1.000
    C40     C    0.48888   0.99147   0.36811   1.000
    O41     O    0.39632   0.96986   0.34917   1.000
    O42     O    0.43630   0.94810   0.40420   1.000
    O43     O    0.56729   0.03330   0.35861   1.000
    C44     C    0.54976   0.73015   0.46853   1.000
    O45     O    0.47099   0.77772   0.47747   1.000
    O46     O    0.59832   0.69127   0.43221   1.000
    O47     O    0.64530   0.70702   0.48670   1.000
    C48     C    0.03903   0.98235   0.37432   1.000
    O49     O    0.10729   0.94566   0.40928   1.000
    O50     O    0.94864   0.02673   0.36309   1.000
    O51     O    0.12662   0.96183   0.35293   1.000
    C52     C    0.49767   0.23244   0.46013   1.000
    O53     O    0.40885   0.27695   0.47144   1.000
    O54     O    0.56826   0.19545   0.42527   1.000
    O55     O    0.58394   0.20827   0.48163   1.000
    C56     C    0.94716   0.23140   0.46692   1.000
    O57     O    0.85342   0.20762   0.48576   1.000
    O58     O    0.02730   0.27801   0.47634   1.000
    O59     O    0.89692   0.19284   0.43080   1.000
    C60     C    0.49970   0.76367   0.95980   1.000
    O61     O    0.41450   0.78836   0.98116   1.000
    O62     O    0.42887   0.80059   0.92454   1.000
    O63     O    0.58950   0.71946   0.97176   1.000
    C64     C    0.53919   0.51669   0.87362   1.000
    O65     O    0.62624   0.54091   0.85222   1.000
    O66     O    0.60745   0.55290   0.90883   1.000
    O67     O    0.44900   0.47232   0.86236   1.000
    C68     C    0.05054   0.76734   0.96762   1.000
    O69     O    0.14520   0.79060   0.98600   1.000
    O70     O    0.97117   0.72002   0.97697   1.000
    O71     O    0.10058   0.80565   0.93116   1.000
    C72     C    0.98901   0.51751   0.86707   1.000
    O73     O    0.89592   0.54147   0.84825   1.000
    O74     O    0.93645   0.55554   0.90350   1.000
    O75     O    0.06765   0.47080   0.85761   1.000
    C76     C    0.99808   0.26540   0.96008   1.000
    O77     O    0.08312   0.28943   0.98146   1.000
    O78     O    0.90924   0.22030   0.97196   1.000
    O79     O    0.06884   0.30294   0.92484   1.000
    C80     C    0.44736   0.26747   0.96737   1.000
    O81     O    0.35248   0.29070   0.98599   1.000
    O82     O    0.39731   0.30621   0.93096   1.000
    O83     O    0.52755   0.22017   0.97684   1.000
    C84     C    0.51073   0.01521   0.86868   1.000
    O85     O    0.43187   0.96878   0.85874   1.000
    O86     O    0.56352   0.05347   0.90487   1.000
    O87     O    0.60287   0.03965   0.84954   1.000
    C88     C    0.96057   0.01632   0.87353   1.000
    O89     O    0.89252   0.05281   0.90880   1.000
    O90     O    0.87258   0.04025   0.85247   1.000
    O91     O    0.05049   0.97132   0.86228   1.000
loop_
    _geom_bond_atom_site_label_1
    _geom_bond_atom_site_label_2
    _geom_bond_distance
    _geom_bond_site_symmetry_2
    _ccdc_geom_bond_type
    N9     O10       2.29442      .   S
    Zr0    O10       3.34401      .   S
    N9     O11       2.29998      .   S
    Zr3    O11       3.35836      .   S
    N12    O13       2.29702      .   S
    Zr1    O13       3.35040  1_556   S
    N12    O14       2.29637      .   S
    Zr2    O14       3.34965      .   S
    N16    O17       2.29625      .   S
    Zr4    O17       3.34855      .   S
    N16    O18       2.30075      .   S
    Zr7    O18       3.35976  1_565   S
    N21    O22       2.29685      .   S
    Zr5    O22       3.35034  1_546   S
    N21    O23       2.29606      .   S
    Zr6    O23       3.34869      .   S
    C28    O29       0.83471      .   S
    N15    O29       1.35876      .   S
    C28    O30       1.02486      .   S
    Zr3    O30       2.03293      .   S
    C28    O31       0.87073  1_455   S
    Zr6    O31       1.78596      .   S
    C32    O33       0.83186      .   S
    N27    O33       1.35526      .   S
    C32    O34       1.04187      .   S
    Zr6    O34       2.08461      .   S
    C32    O35       0.91453  1_655   S
    Zr7    O35       1.84354      .   S
    C36    O37       0.83427      .   S
    N15    O37       1.35778      .   S
    C36    O38       1.03343      .   S
    Zr3    O38       2.05765      .   S
    C36    O39       0.90880      .   S
    Zr6    O39       1.85111      .   S
    C40    O41       0.82292      .   S
    N24    O41       1.34663      .   S
    C40    O42       1.05771      .   S
    Zr7    O42       2.06019      .   S
    C40    O43       0.82017  1_565   S
    Zr2    O43       1.73348      .   S
    C44    O45       0.87412      .   S
    Zr7    O45       1.81044      .   S
    C44    O46       1.01790      .   S
    Zr6    O46       2.01266      .   S
    C44    O47       0.83687      .   S
    N27    O47       1.36125      .   S
    C48    O49       1.03536      .   S
    Zr7    O49       2.06538      .   S
    C48    O50       0.90928  1_465   S
    Zr2    O50       1.85595      .   S
    C48    O51       0.81627      .   S
    N24    O51       1.30143      .   S
    C52    O53       0.90232      .   S
    Zr3    O53       1.82866      .   S
    C52    O54       1.04066      .   S
    Zr2    O54       2.08292      .   S
    C52    O55       0.83252      .   S
    N20    O55       1.35630      .   S
    C56    O57       0.83672      .   S
    N20    O57       1.36105      .   S
    C56    O58       0.87628  1_655   S
    Zr3    O58       1.80892      .   S
    C56    O59       1.01947      .   S
    Zr2    O59       2.01527      .   S
    C60    O61       0.82576      .   S
    N19    O61       1.34858  1_554   S
    C60    O62       1.05004      .   S
    Zr0    O62       2.09092      .   S
    C60    O63       0.90941      .   S
    Zr1    O63       1.83441      .   S
    C64    O65       0.83400      .   S
    N8     O65       1.35758      .   S
    C64    O66       1.03826      .   S
    Zr1    O66       2.07155      .   S
    C64    O67       0.91127      .   S
    Zr4    O67       1.86022      .   S
    C68    O69       0.83688      .   S
    N19    O69       1.36157  1_554   S
    C68    O70       0.87847  1_455   S
    Zr1    O70       1.81833      .   S
    C68    O71       1.01998      .   S
    Zr0    O71       2.01764      .   S
    C72    O73       0.83505      .   S
    N8     O73       1.35910      .   S
    C72    O74       1.02296      .   S
    Zr1    O74       2.02680      .   S
    C72    O75       0.86734  1_655   S
    Zr4    O75       1.77842      .   S
    C76    O77       0.82583  1_655   S
    N25    O77       1.34907  1_554   S
    C76    O78       0.91386      .   S
    Zr5    O78       1.84324      .   S
    C76    O79       1.05201  1_655   S
    Zr4    O79       2.09625      .   S
    C80    O81       0.83612      .   S
    N25    O81       1.36022  1_554   S
    C80    O82       1.02357      .   S
    Zr4    O82       2.02429      .   S
    C80    O83       0.88100      .   S
    Zr5    O83       1.81932      .   S
    C84    O85       0.87180  1_545   S
    Zr0    O85       1.78419      .   S
    C84    O86       1.02462      .   S
    Zr5    O86       2.03291      .   S
    C84    O87       0.83510      .   S
    N26    O87       1.35941      .   S
    C88    O89       1.03587      .   S
    Zr5    O89       2.06444      .   S
    C88    O90       0.83431      .   S
    N26    O90       1.35822      .   S
    C88    O91       0.91176  1_645   S
    Zr0    O91       1.86374      .   S
