# CIF file generated by openbabel 2.4.90, see http://openbabel.sf.net
data_I
_chemical_name_common ''
_cell_length_a 14.864
_cell_length_b 13.096
_cell_length_c 13.1
_cell_angle_alpha 92.409
_cell_angle_beta 95.218
_cell_angle_gamma 84.857
_space_group_name_H-M_alt 'P 1'
_space_group_name_Hall 'P 1'
loop_
    _symmetry_equiv_pos_as_xyz
    x,y,z
loop_
    _atom_site_label
    _atom_site_type_symbol
    _atom_site_fract_x
    _atom_site_fract_y
    _atom_site_fract_z
    _atom_site_occupancy
    Zn0     Zn   0.85946   0.38637   0.79091   1.000
    Zn1     Zn   0.14053   0.79082   0.38645   1.000
    Zn2     Zn   0.64053   0.79082   0.38645   1.000
    Zn3     Zn   0.14055   0.61363   0.20900   1.000
    Zn4     Zn   0.64056   0.61363   0.20900   1.000
    Zn5     Zn   0.35948   0.20918   0.61354   1.000
    Zn6     Zn   0.85949   0.20918   0.61354   1.000
    Zn7     Zn   0.24998   0.84323   0.84327   1.000
    Zn8     Zn   0.74998   0.84323   0.84327   1.000
    Zn9     Zn   0.25003   0.15677   0.15670   1.000
    Zn10    Zn   0.75004   0.15677   0.15670   1.000
    Zn11    Zn   0.99995   0.81411   0.81402   1.000
    Zn12    Zn   0.49995   0.81411   0.81402   1.000
    Zn13    Zn   0.00000   0.18589   0.18597   1.000
    Zn14    Zn   0.50006   0.18589   0.18597   1.000
    Zn15    Zn   0.35946   0.38637   0.79091   1.000
    H16     H    0.48613   0.32598   0.67430   1.000
    H17     H    0.98613   0.32598   0.67430   1.000
    H18     H    0.01388   0.67401   0.32570   1.000
    H19     H    0.51389   0.67401   0.32570   1.000
    O20     O    0.56607   0.70204   0.29780   1.000
    O21     O    0.43395   0.29795   0.70220   1.000
    O22     O    0.93395   0.29795   0.70220   1.000
    O23     O    0.06606   0.70204   0.29780   1.000
loop_
    _geom_bond_atom_site_label_1
    _geom_bond_atom_site_label_2
    _geom_bond_distance
    _geom_bond_site_symmetry_2
    _ccdc_geom_bond_type
    O20    H19       0.99182      .   S
    O20    Zn2       1.95161      .   S
    O23    H18       0.99182      .   S
    O23    Zn1       1.95161      .   S
    H16    O21       0.99183      .   S
    H17    O22       0.99183      .   S
    O21    Zn15      1.95147      .   S
    O22    Zn0       1.95147      .   S
    O21    Zn5       1.95163      .   S
    O22    Zn6       1.95163      .   S
    O23    Zn3       1.95215      .   S
    O20    Zn4       1.95215      .   S
