# CIF file generated by openbabel 2.4.90, see http://openbabel.sf.net
data_I
_chemical_name_common ''
_cell_length_a 14.864
_cell_length_b 13.096
_cell_length_c 13.1
_cell_angle_alpha 92.409
_cell_angle_beta 95.218
_cell_angle_gamma 84.857
_space_group_name_H-M_alt 'P 1'
_space_group_name_Hall 'P 1'
loop_
    _symmetry_equiv_pos_as_xyz
    x,y,z
loop_
    _atom_site_label
    _atom_site_type_symbol
    _atom_site_fract_x
    _atom_site_fract_y
    _atom_site_fract_z
    _atom_site_occupancy
    N0      N    0.08427   0.73771   0.03122   1.000
    N1      N    0.41574   0.26230   0.96870   1.000
    N2      N    0.91574   0.26230   0.96870   1.000
    N3      N    0.58428   0.73771   0.03122   1.000
    N4      N    0.91939   0.21502   0.40247   1.000
    N5      N    0.41939   0.21502   0.40247   1.000
    N6      N    0.08437   0.96879   0.26260   1.000
    N7      N    0.75001   0.00000   0.99998   1.000
    N8      N    0.25000   0.00000   0.99998   1.000
    N9      N    0.41911   0.59759   0.78482   1.000
    N10     N    0.91911   0.59759   0.78488   1.000
    N11     N    0.58062   0.78500   0.59741   1.000
    N12     N    0.41564   0.03121   0.73737   1.000
    N13     N    0.08090   0.40242   0.21508   1.000
    N14     N    0.58090   0.40242   0.21509   1.000
    N15     N    0.91564   0.03121   0.73737   1.000
    N16     N    0.08062   0.78500   0.59741   1.000
    N17     N    0.58437   0.96879   0.26260   1.000
    Zr18    Zr   0.40975   0.30487   0.69524   1.000
    O19     O    0.39989   0.30468   0.80365   1.000
    O20     O    0.40174   0.41720   0.74219   1.000
    O21     O    0.39984   0.19640   0.69525   1.000
    O22     O    0.40185   0.25775   0.58285   1.000
    Zr23    Zr   0.59026   0.69513   0.30474   1.000
    O24     O    0.59817   0.74226   0.41710   1.000
    O25     O    0.60018   0.80360   0.30472   1.000
    O26     O    0.59828   0.58280   0.25770   1.000
    O27     O    0.60013   0.69532   0.19630   1.000
    Zr28    Zr   0.09026   0.69513   0.30474   1.000
    O29     O    0.10017   0.80360   0.30472   1.000
    O30     O    0.09816   0.74226   0.41710   1.000
    O31     O    0.09827   0.58280   0.25770   1.000
    O32     O    0.10012   0.69532   0.19630   1.000
    Zr33    Zr   0.50006   0.18589   0.18597   1.000
    O34     O    0.53016   0.25490   0.19586   1.000
    O35     O    0.53069   0.11554   0.20925   1.000
    O36     O    0.46944   0.20909   0.11556   1.000
    O37     O    0.47003   0.19579   0.25497   1.000
    Zr38    Zr   0.24998   0.84323   0.84327   1.000
    O39     O    0.19733   0.82587   0.76423   1.000
    O40     O    0.30137   0.90231   0.80674   1.000
    O41     O    0.30254   0.76425   0.82582   1.000
    O42     O    0.19855   0.80678   0.90231   1.000
    Zr43    Zr   0.99995   0.81411   0.81402   1.000
    O44     O    0.02999   0.80422   0.74498   1.000
    O45     O    0.96986   0.74510   0.80412   1.000
    O46     O    0.96933   0.88446   0.79073   1.000
    O47     O    0.03057   0.79091   0.88441   1.000
    Zr48    Zr   0.25003   0.15677   0.15670   1.000
    O49     O    0.30268   0.17415   0.23572   1.000
    O50     O    0.19746   0.23576   0.17412   1.000
    O51     O    0.19864   0.09769   0.19323   1.000
    O52     O    0.30146   0.19322   0.09765   1.000
    Zr53    Zr   0.75004   0.15677   0.15670   1.000
    O54     O    0.69747   0.23576   0.17413   1.000
    O55     O    0.69864   0.09769   0.19323   1.000
    O56     O    0.80146   0.19322   0.09765   1.000
    O57     O    0.80268   0.17415   0.23572   1.000
    Zr58    Zr   0.90976   0.30487   0.69524   1.000
    O59     O    0.90174   0.41720   0.74226   1.000
    O60     O    0.89989   0.30468   0.80365   1.000
    O61     O    0.89984   0.19640   0.69525   1.000
    O62     O    0.90185   0.25775   0.58285   1.000
    Zr63    Zr   0.00000   0.18589   0.18597   1.000
    O64     O    0.03012   0.25490   0.19586   1.000
    O65     O    0.96940   0.20909   0.11556   1.000
    O66     O    0.03065   0.11554   0.20925   1.000
    O67     O    0.96999   0.19579   0.25497   1.000
    Zr68    Zr   0.74998   0.84323   0.84327   1.000
    O69     O    0.80137   0.90231   0.80674   1.000
    O70     O    0.69855   0.80678   0.90231   1.000
    O71     O    0.69733   0.82587   0.76423   1.000
    O72     O    0.80255   0.76425   0.82584   1.000
    Zr73    Zr   0.49995   0.81411   0.81402   1.000
    O74     O    0.46932   0.88446   0.79074   1.000
    O75     O    0.52998   0.80422   0.74498   1.000
    O76     O    0.53057   0.79091   0.88441   1.000
    O77     O    0.46985   0.74510   0.80410   1.000
    O78     O    0.24998   0.89424   0.89426   1.000
    O79     O    0.25002   0.10576   0.10571   1.000
    O80     O    0.75003   0.10576   0.10570   1.000
    O81     O    0.74999   0.89424   0.89426   1.000
loop_
    _geom_bond_atom_site_label_1
    _geom_bond_atom_site_label_2
    _geom_bond_distance
    _geom_bond_site_symmetry_2
    _ccdc_geom_bond_type
    Zr18   O19       1.44107      .   S
    N1     O19       2.24122      .   S
    Zr18   O20       1.56925      .   S
    N9     O20       2.43540      .   S
    Zr18   O21       1.44120      .   S
    N12    O21       2.24176      .   S
    Zr18   O22       1.57078      .   S
    N5     O22       2.43708      .   S
    Zr23   O24       1.57059      .   S
    N11    O24       2.43619      .   S
    Zr23   O25       1.44123      .   S
    N17    O25       2.24182      .   S
    Zr23   O26       1.56961      .   S
    N14    O26       2.43527      .   S
    Zr23   O27       1.44137      .   S
    N3     O27       2.24177      .   S
    Zr28   O29       1.44124      .   S
    N6     O29       2.24182      .   S
    Zr28   O30       1.57060      .   S
    N16    O30       2.43619      .   S
    Zr28   O31       1.56962      .   S
    N13    O31       2.43528      .   S
    Zr28   O32       1.44137      .   S
    N0     O32       2.24177      .   S
    Zr33   O34       1.04208      .   S
    N14    O34       2.13314      .   S
    Zr33   O35       1.03546      .   S
    N17    O35       2.13421  1_565   S
    Zr33   O36       1.03566      .   S
    N1     O36       2.13496  1_556   S
    Zr33   O37       1.04233      .   S
    N5     O37       2.13382      .   S
    Zr38   O39       1.26526      .   S
    N16    O39       2.72951      .   S
    Zr38   O40       1.27073      .   S
    N12    O40       2.73567  1_545   S
    Zr38   O41       1.26507      .   S
    N9     O41       2.72892      .   S
    Zr38   O42       1.27059      .   S
    N0     O42       2.73508  1_554   S
    Zr43   O44       1.04265  1_655   S
    N16    O44       2.13471      .   S
    Zr43   O45       1.04208      .   S
    N10    O45       2.13313      .   S
    Zr43   O46       1.03549      .   S
    N15    O46       2.13431  1_545   S
    Zr43   O47       1.03542  1_655   S
    N0     O47       2.13424  1_554   S
    Zr48   O49       1.26507      .   S
    N5     O49       2.72889      .   S
    Zr48   O50       1.26499      .   S
    N13    O50       2.72876      .   S
    Zr48   O51       1.27075      .   S
    N6     O51       2.73567  1_565   S
    Zr48   O52       1.27072      .   S
    N1     O52       2.73552  1_556   S
    Zr53   O54       1.26501      .   S
    N14    O54       2.72880      .   S
    Zr53   O55       1.27076      .   S
    N17    O55       2.73569  1_565   S
    Zr53   O56       1.27071      .   S
    N2     O56       2.73549  1_556   S
    Zr53   O57       1.26506      .   S
    N4     O57       2.72887      .   S
    Zr58   O59       1.56961      .   S
    N10    O59       2.43535      .   S
    Zr58   O60       1.44108      .   S
    N2     O60       2.24122      .   S
    Zr58   O61       1.44120      .   S
    N15    O61       2.24175      .   S
    Zr58   O62       1.57078      .   S
    N4     O62       2.43707      .   S
    Zr63   O64       1.04225      .   S
    N13    O64       2.13339      .   S
    Zr63   O65       1.03553  1_455   S
    N2     O65       2.13480  1_556   S
    Zr63   O66       1.03557      .   S
    N6     O66       2.13437  1_565   S
    Zr63   O67       1.04214  1_455   S
    N4     O67       2.13356      .   S
    Zr68   O69       1.27072      .   S
    N15    O69       2.73565  1_545   S
    Zr68   O70       1.27060      .   S
    N3     O70       2.73511  1_554   S
    Zr68   O71       1.26527      .   S
    N11    O71       2.72953      .   S
    Zr68   O72       1.26502      .   S
    N10    O72       2.72878      .   S
    Zr73   O74       1.03548      .   S
    N12    O74       2.13429  1_545   S
    Zr73   O75       1.04267      .   S
    N11    O75       2.13474      .   S
    Zr73   O76       1.03543      .   S
    N3     O76       2.13426  1_554   S
    Zr73   O77       1.04208      .   S
    N9     O77       2.13314      .   S
    N8     O78       1.91703  1_545   S
    Zr38   O78       0.92463      .   S
    N8     O79       1.91713  1_556   S
    Zr48   O79       0.92465      .   S
    Zr53   O80       0.92471      .   S
    N7     O80       1.91710  1_556   S
    Zr68   O81       0.92463      .   S
    N7     O81       1.91702  1_545   S
