# CIF file generated by openbabel 2.4.90, see http://openbabel.sf.net
data_I
_chemical_name_common ''
_cell_length_a 14.864
_cell_length_b 13.096
_cell_length_c 13.1
_cell_angle_alpha 92.409
_cell_angle_beta 95.218
_cell_angle_gamma 84.857
_space_group_name_H-M_alt 'P 1'
_space_group_name_Hall 'P 1'
loop_
    _symmetry_equiv_pos_as_xyz
    x,y,z
loop_
    _atom_site_label
    _atom_site_type_symbol
    _atom_site_fract_x
    _atom_site_fract_y
    _atom_site_fract_z
    _atom_site_occupancy
    Zr0     Zr   0.35946   0.38637   0.79091   1.000
    Zr1     Zr   0.85946   0.38637   0.79091   1.000
    Zr2     Zr   0.14053   0.79082   0.38645   1.000
    Zr3     Zr   0.64053   0.79082   0.38645   1.000
    Zr4     Zr   0.14055   0.61363   0.20900   1.000
    Zr5     Zr   0.64056   0.61363   0.20900   1.000
    Zr6     Zr   0.35948   0.20918   0.61354   1.000
    Zr7     Zr   0.85949   0.20918   0.61354   1.000
    Zr8     Zr   0.24998   0.84323   0.84327   1.000
    Zr9     Zr   0.74998   0.84323   0.84327   1.000
    Zr10    Zr   0.25003   0.15677   0.15670   1.000
    Zr11    Zr   0.75004   0.15677   0.15670   1.000
    Zr12    Zr   0.99995   0.81411   0.81402   1.000
    Zr13    Zr   0.49995   0.81411   0.81402   1.000
    Zr14    Zr   0.00000   0.18589   0.18597   1.000
    Zr15    Zr   0.50006   0.18589   0.18597   1.000
    Zr16    Zr   0.48613   0.32598   0.67430   1.000
    Zr17    Zr   0.98613   0.32598   0.67430   1.000
    Zr18    Zr   0.01388   0.67401   0.32570   1.000
    Zr19    Zr   0.51389   0.67401   0.32570   1.000
    Zr20    Zr   0.43395   0.29795   0.70220   1.000
    Zr21    Zr   0.93395   0.29795   0.70220   1.000
    Zr22    Zr   0.06606   0.70204   0.29780   1.000
    Zr23    Zr   0.56607   0.70204   0.29780   1.000
    O24     O    0.53998   0.68803   0.31175   1.000
    O25     O    0.60330   0.74643   0.34212   1.000
    O26     O    0.03997   0.68803   0.31175   1.000
    O27     O    0.10329   0.74643   0.34212   1.000
    O28     O    0.46004   0.31196   0.68825   1.000
    O29     O    0.96004   0.31196   0.68825   1.000
    O30     O    0.39670   0.34216   0.74655   1.000
    O31     O    0.89671   0.34216   0.74655   1.000
    O32     O    0.39672   0.25356   0.65787   1.000
    O33     O    0.89672   0.25356   0.65787   1.000
    O34     O    0.10331   0.65784   0.25340   1.000
    O35     O    0.60331   0.65784   0.25340   1.000
    N36     N    0.08427   0.73771   0.03122   1.000
    O37     O    0.14712   0.77033   0.96135   1.000
    O38     O    0.06119   0.76771   0.95480   1.000
    O39     O    0.10999   0.69552   0.08787   1.000
    N40     N    0.41574   0.26230   0.96870   1.000
    O41     O    0.39002   0.30449   0.91206   1.000
    O42     O    0.35289   0.22967   0.03859   1.000
    O43     O    0.43882   0.23229   0.04516   1.000
    N44     N    0.91574   0.26230   0.96870   1.000
    O45     O    0.93881   0.23229   0.04516   1.000
    O46     O    0.89002   0.30449   0.91206   1.000
    O47     O    0.85289   0.22967   0.03859   1.000
    N48     N    0.58428   0.73771   0.03122   1.000
    O49     O    0.64713   0.77033   0.96135   1.000
    O50     O    0.56119   0.76771   0.95480   1.000
    O51     O    0.60999   0.69552   0.08787   1.000
    N52     N    0.91939   0.21502   0.40247   1.000
    O53     O    0.85533   0.19152   0.31473   1.000
    O54     O    0.93998   0.20569   0.32398   1.000
    O55     O    0.89395   0.21063   0.47046   1.000
    N56     N    0.41939   0.21502   0.40247   1.000
    O57     O    0.35533   0.19152   0.31473   1.000
    O58     O    0.43999   0.20569   0.32398   1.000
    O59     O    0.39394   0.21063   0.47046   1.000
    N60     N    0.08437   0.96879   0.26260   1.000
    O61     O    0.14725   0.03861   0.22977   1.000
    O62     O    0.06130   0.04519   0.23253   1.000
    O63     O    0.11009   0.91207   0.30470   1.000
    N64     N    0.75001   0.00000   0.99998   1.000
    O65     O    0.76974   0.04352   0.06595   1.000
    O66     O    0.73028   0.95648   0.93402   1.000
    O67     O    0.73031   0.06597   0.04347   1.000
    O68     O    0.76971   0.93403   0.95649   1.000
    N69     N    0.25000   0.00000   0.99998   1.000
    O70     O    0.26973   0.04352   0.06595   1.000
    O71     O    0.23028   0.95648   0.93402   1.000
    O72     O    0.23031   0.06598   0.04349   1.000
    O73     O    0.26970   0.93403   0.95649   1.000
    N74     N    0.17288   0.31377   0.68605   1.000
    O75     O    0.23305   0.27456   0.64727   1.000
    O76     O    0.23282   0.35233   0.72629   1.000
    N77     N    0.41911   0.59759   0.78482   1.000
    O78     O    0.43975   0.67609   0.79419   1.000
    O79     O    0.39372   0.52954   0.78914   1.000
    O80     O    0.35511   0.68527   0.80838   1.000
    N81     N    0.91911   0.59759   0.78488   1.000
    O82     O    0.85511   0.68527   0.80841   1.000
    O83     O    0.93976   0.67609   0.79422   1.000
    O84     O    0.89372   0.52954   0.78929   1.000
    N85     N    0.58062   0.78500   0.59741   1.000
    O86     O    0.56002   0.79432   0.67595   1.000
    O87     O    0.60607   0.78939   0.52947   1.000
    O88     O    0.64469   0.80850   0.68519   1.000
    N89     N    0.41564   0.03121   0.73737   1.000
    O90     O    0.38993   0.08794   0.69527   1.000
    O91     O    0.35276   0.96139   0.77021   1.000
    O92     O    0.43870   0.95481   0.76745   1.000
    N93     N    0.08090   0.40242   0.21508   1.000
    O94     O    0.14490   0.31474   0.19155   1.000
    O95     O    0.06024   0.32392   0.20575   1.000
    O96     O    0.10629   0.47047   0.21066   1.000
    N97     N    0.58090   0.40242   0.21509   1.000
    O98     O    0.64490   0.31474   0.19155   1.000
    O99     O    0.56026   0.32392   0.20576   1.000
    O100    O    0.60629   0.47047   0.21066   1.000
    N101    N    0.91564   0.03121   0.73737   1.000
    O102    O    0.88993   0.08794   0.69527   1.000
    O103    O    0.85277   0.96139   0.77020   1.000
    O104    O    0.93870   0.95481   0.76745   1.000
    N105    N    0.08062   0.78500   0.59741   1.000
    O106    O    0.06002   0.79432   0.67595   1.000
    O107    O    0.14468   0.80850   0.68519   1.000
    O108    O    0.10607   0.78939   0.52947   1.000
    N109    N    0.58437   0.96879   0.26260   1.000
    O110    O    0.64725   0.03861   0.22977   1.000
    O111    O    0.56132   0.04519   0.23253   1.000
    O112    O    0.61009   0.91207   0.30470   1.000
    N113    N    0.67288   0.31377   0.68605   1.000
    O114    O    0.73306   0.27456   0.64727   1.000
    O115    O    0.73282   0.35233   0.72629   1.000
    N116    N    0.82714   0.68622   0.31393   1.000
    O117    O    0.76696   0.72543   0.35270   1.000
    O118    O    0.76720   0.64767   0.27367   1.000
    N119    N    0.32713   0.68622   0.31393   1.000
    O120    O    0.26719   0.64767   0.27367   1.000
    O121    O    0.26696   0.72543   0.35270   1.000
loop_
    _geom_bond_atom_site_label_1
    _geom_bond_atom_site_label_2
    _geom_bond_distance
    _geom_bond_site_symmetry_2
    _ccdc_geom_bond_type
    Zr23   O24       0.49591      .   S
    Zr19   O24       0.49591      .   S
    Zr23   O25       0.97580      .   S
    Zr3    O25       0.97580      .   S
    Zr22   O26       0.49591      .   S
    Zr18   O26       0.49591      .   S
    Zr22   O27       0.97580      .   S
    Zr2    O27       0.97580      .   S
    Zr16   O28       0.49592      .   S
    Zr20   O28       0.49592      .   S
    Zr17   O29       0.49592      .   S
    Zr21   O29       0.49592      .   S
    Zr20   O30       0.97573      .   S
    Zr0    O30       0.97573      .   S
    Zr21   O31       0.97573      .   S
    Zr1    O31       0.97573      .   S
    Zr20   O32       0.97582      .   S
    Zr6    O32       0.97582      .   S
    Zr21   O33       0.97582      .   S
    Zr7    O33       0.97582      .   S
    Zr22   O34       0.97608      .   S
    Zr4    O34       0.97608      .   S
    Zr23   O35       0.97608      .   S
    Zr5    O35       0.97608      .   S
    N36    O37       1.46723  1_554   S
    Zr8    O37       2.54119      .   S
    N36    O38       1.10488  1_554   S
    Zr12   O38       2.07083  1_655   S
    N36    O39       0.97327      .   S
    Zr4    O39       1.94908      .   S
    N40    O41       0.97308      .   S
    Zr0    O41       1.94925      .   S
    N40    O42       1.46755  1_556   S
    Zr10   O42       2.54143      .   S
    N40    O43       1.10536  1_556   S
    Zr15   O43       2.07132      .   S
    N44    O45       1.10531  1_556   S
    Zr14   O45       2.07107  1_455   S
    N44    O46       0.97307      .   S
    Zr1    O46       1.94925      .   S
    N44    O47       1.46753  1_556   S
    Zr11   O47       2.54142      .   S
    N48    O49       1.46725  1_554   S
    Zr9    O49       2.54121      .   S
    N48    O50       1.10489  1_554   S
    Zr13   O50       2.07086      .   S
    N48    O51       0.97328      .   S
    Zr5    O51       1.94908      .   S
    N52    O53       1.46499      .   S
    Zr11   O53       2.53012      .   S
    N52    O54       1.09813      .   S
    Zr14   O54       2.08428  1_455   S
    N52    O55       1.00456      .   S
    Zr7    O55       1.98872      .   S
    N56    O57       1.46501      .   S
    Zr10   O57       2.53014      .   S
    N56    O58       1.09822      .   S
    Zr15   O58       2.08465      .   S
    N56    O59       1.00457      .   S
    Zr6    O59       1.98873      .   S
    N60    O61       1.46761  1_565   S
    Zr10   O61       2.54151      .   S
    N60    O62       1.10490  1_565   S
    Zr14   O62       2.07115      .   S
    N60    O63       0.97333      .   S
    Zr2    O63       1.94909      .   S
    N64    O65       1.04890  1_556   S
    Zr11   O65       1.88041      .   S
    N64    O66       1.04880  1_545   S
    Zr9    O66       1.88035      .   S
    N64    O67       1.04896  1_556   S
    Zr11   O67       1.88030      .   S
    N64    O68       1.04902  1_545   S
    Zr9    O68       1.88005      .   S
    N69    O70       1.04889  1_556   S
    Zr10   O70       1.88040      .   S
    N69    O71       1.04881  1_545   S
    Zr8    O71       1.88035      .   S
    N69    O72       1.04910  1_556   S
    Zr10   O72       1.88008      .   S
    N69    O73       1.04904  1_545   S
    Zr8    O73       1.88004      .   S
    N74    O75       1.14023      .   S
    Zr6    O75       2.07147      .   S
    N74    O76       1.13998      .   S
    Zr0    O76       2.07067      .   S
    N77    O78       1.09782      .   S
    Zr13   O78       2.08416      .   S
    N77    O79       1.00408      .   S
    Zr0    O79       1.98803      .   S
    N77    O80       1.46504      .   S
    Zr8    O80       2.53013      .   S
    N81    O82       1.46494      .   S
    Zr9    O82       2.53004      .   S
    N81    O83       1.09781      .   S
    Zr12   O83       2.08415      .   S
    N81    O84       1.00422      .   S
    Zr1    O84       1.98788      .   S
    N85    O86       1.09879      .   S
    Zr13   O86       2.08535      .   S
    N85    O87       1.00392      .   S
    Zr3    O87       1.98805      .   S
    N85    O88       1.46544      .   S
    Zr9    O88       2.53054      .   S
    N89    O90       0.97333      .   S
    Zr6    O90       1.94890      .   S
    N89    O91       1.46763  1_545   S
    Zr8    O91       2.54146      .   S
    N89    O92       1.10490  1_545   S
    Zr13   O92       2.07097      .   S
    N93    O94       1.46495      .   S
    Zr10   O94       2.52999      .   S
    N93    O95       1.09790      .   S
    Zr14   O95       2.08450      .   S
    N93    O96       1.00422      .   S
    Zr4    O96       1.98786      .   S
    N97    O98       1.46498      .   S
    Zr11   O98       2.53002      .   S
    N97    O99       1.09781      .   S
    Zr15   O99       2.08416      .   S
    N97    O100      1.00424      .   S
    Zr5    O100      1.98788      .   S
    N101   O102      0.97331      .   S
    Zr7    O102      1.94888      .   S
    N101   O103      1.46762  1_545   S
    Zr9    O103      2.54145      .   S
    N101   O104      1.10491  1_545   S
    Zr12   O104      2.07099      .   S
    N105   O106      1.09879      .   S
    Zr12   O106      2.08530  1_655   S
    N105   O107      1.46542      .   S
    Zr8    O107      2.53053      .   S
    N105   O108      1.00391      .   S
    Zr2    O108      1.98804      .   S
    N109   O110      1.46763  1_565   S
    Zr11   O110      2.54153      .   S
    N109   O111      1.10485  1_565   S
    Zr15   O111      2.07091      .   S
    N109   O112      0.97333      .   S
    Zr3    O112      1.94909      .   S
    N113   O114      1.14023      .   S
    Zr7    O114      2.07146      .   S
    N113   O115      1.13998      .   S
    Zr1    O115      2.07066      .   S
    N116   O117      1.14017      .   S
    Zr3    O117      2.07155      .   S
    N116   O118      1.14003      .   S
    Zr5    O118      2.07087      .   S
    N119   O120      1.14003      .   S
    Zr4    O120      2.07086      .   S
    N119   O121      1.14017      .   S
    Zr2    O121      2.07154      .   S
