# CIF file generated by openbabel 2.4.90, see http://openbabel.sf.net
data_I
_chemical_name_common ''
_cell_length_a 14.864
_cell_length_b 13.096
_cell_length_c 13.1
_cell_angle_alpha 92.409
_cell_angle_beta 95.218
_cell_angle_gamma 84.857
_space_group_name_H-M_alt 'P 1'
_space_group_name_Hall 'P 1'
loop_
    _symmetry_equiv_pos_as_xyz
    x,y,z
loop_
    _atom_site_label
    _atom_site_type_symbol
    _atom_site_fract_x
    _atom_site_fract_y
    _atom_site_fract_z
    _atom_site_occupancy
    N0      N    0.08427   0.73771   0.03122   1.000
    N1      N    0.41574   0.26230   0.96870   1.000
    N2      N    0.91574   0.26230   0.96870   1.000
    N3      N    0.58428   0.73771   0.03122   1.000
    N4      N    0.91939   0.21502   0.40247   1.000
    N5      N    0.41939   0.21502   0.40247   1.000
    N6      N    0.08437   0.96879   0.26260   1.000
    N7      N    0.75001   0.00000   0.99998   1.000
    N8      N    0.25000   0.00000   0.99998   1.000
    N9      N    0.17288   0.31377   0.68605   1.000
    N10     N    0.41911   0.59759   0.78482   1.000
    N11     N    0.91911   0.59759   0.78488   1.000
    N12     N    0.58062   0.78500   0.59741   1.000
    N13     N    0.41564   0.03121   0.73737   1.000
    N14     N    0.08090   0.40242   0.21508   1.000
    N15     N    0.58090   0.40242   0.21509   1.000
    N16     N    0.91564   0.03121   0.73737   1.000
    N17     N    0.08062   0.78500   0.59741   1.000
    N18     N    0.58437   0.96879   0.26260   1.000
    N19     N    0.67288   0.31377   0.68605   1.000
    N20     N    0.82714   0.68622   0.31393   1.000
    N21     N    0.32713   0.68622   0.31393   1.000
    Zr22    Zr   0.40975   0.30487   0.69524   1.000
    O23     O    0.32128   0.32860   0.71076   1.000
    O24     O    0.39989   0.30468   0.80365   1.000
    O25     O    0.40174   0.41720   0.74219   1.000
    O26     O    0.39984   0.19640   0.69525   1.000
    O27     O    0.40185   0.25775   0.58285   1.000
    O28     O    0.32140   0.28972   0.67125   1.000
    Zr29    Zr   0.59026   0.69513   0.30474   1.000
    O30     O    0.59817   0.74226   0.41710   1.000
    O31     O    0.67861   0.71028   0.32872   1.000
    O32     O    0.60018   0.80360   0.30472   1.000
    O33     O    0.59828   0.58280   0.25770   1.000
    O34     O    0.67873   0.67140   0.28921   1.000
    O35     O    0.60013   0.69532   0.19630   1.000
    Zr36    Zr   0.09026   0.69513   0.30474   1.000
    O37     O    0.17861   0.71028   0.32872   1.000
    O38     O    0.10017   0.80360   0.30472   1.000
    O39     O    0.09816   0.74226   0.41710   1.000
    O40     O    0.09827   0.58280   0.25770   1.000
    O41     O    0.17873   0.67140   0.28921   1.000
    O42     O    0.10012   0.69532   0.19630   1.000
    Zr43    Zr   0.50006   0.18589   0.18597   1.000
    O44     O    0.53016   0.25490   0.19586   1.000
    O45     O    0.53069   0.11554   0.20925   1.000
    O46     O    0.46944   0.20909   0.11556   1.000
    O47     O    0.47003   0.19579   0.25497   1.000
    Zr48    Zr   0.24998   0.84323   0.84327   1.000
    O49     O    0.19733   0.82587   0.76423   1.000
    O50     O    0.30137   0.90231   0.80674   1.000
    O51     O    0.25984   0.88863   0.89988   1.000
    O52     O    0.30254   0.76425   0.82582   1.000
    O53     O    0.19855   0.80678   0.90231   1.000
    O54     O    0.24013   0.89986   0.88864   1.000
    Zr55    Zr   0.99995   0.81411   0.81402   1.000
    O56     O    0.02999   0.80422   0.74498   1.000
    O57     O    0.96986   0.74510   0.80412   1.000
    O58     O    0.96933   0.88446   0.79073   1.000
    O59     O    0.03057   0.79091   0.88441   1.000
    Zr60    Zr   0.25003   0.15677   0.15670   1.000
    O61     O    0.30268   0.17415   0.23572   1.000
    O62     O    0.19746   0.23576   0.17412   1.000
    O63     O    0.25988   0.10015   0.11133   1.000
    O64     O    0.19864   0.09769   0.19323   1.000
    O65     O    0.30146   0.19322   0.09765   1.000
    O66     O    0.24017   0.11138   0.10009   1.000
    Zr67    Zr   0.75004   0.15677   0.15670   1.000
    O68     O    0.69747   0.23576   0.17413   1.000
    O69     O    0.74017   0.11137   0.10008   1.000
    O70     O    0.69864   0.09769   0.19323   1.000
    O71     O    0.75989   0.10015   0.11133   1.000
    O72     O    0.80146   0.19322   0.09765   1.000
    O73     O    0.80268   0.17415   0.23572   1.000
    Zr74    Zr   0.90976   0.30487   0.69524   1.000
    O75     O    0.90174   0.41720   0.74226   1.000
    O76     O    0.82129   0.32860   0.71076   1.000
    O77     O    0.89989   0.30468   0.80365   1.000
    O78     O    0.89984   0.19640   0.69525   1.000
    O79     O    0.82141   0.28972   0.67125   1.000
    O80     O    0.90185   0.25775   0.58285   1.000
    Zr81    Zr   0.00000   0.18589   0.18597   1.000
    O82     O    0.03012   0.25490   0.19586   1.000
    O83     O    0.96940   0.20909   0.11556   1.000
    O84     O    0.03065   0.11554   0.20925   1.000
    O85     O    0.96999   0.19579   0.25497   1.000
    Zr86    Zr   0.74998   0.84323   0.84327   1.000
    O87     O    0.80137   0.90231   0.80674   1.000
    O88     O    0.75984   0.88863   0.89988   1.000
    O89     O    0.74013   0.89986   0.88865   1.000
    O90     O    0.69855   0.80678   0.90231   1.000
    O91     O    0.69733   0.82587   0.76423   1.000
    O92     O    0.80255   0.76425   0.82584   1.000
    Zr93    Zr   0.49995   0.81411   0.81402   1.000
    O94     O    0.46932   0.88446   0.79074   1.000
    O95     O    0.52998   0.80422   0.74498   1.000
    O96     O    0.53057   0.79091   0.88441   1.000
    O97     O    0.46985   0.74510   0.80410   1.000
loop_
    _geom_bond_atom_site_label_1
    _geom_bond_atom_site_label_2
    _geom_bond_distance
    _geom_bond_site_symmetry_2
    _ccdc_geom_bond_type
    Zr22   O23       1.35545      .   S
    N9     O23       2.22494      .   S
    Zr22   O24       1.44107      .   S
    N1     O24       2.24122      .   S
    Zr22   O25       1.56925      .   S
    N10    O25       2.43540      .   S
    Zr22   O26       1.44120      .   S
    N13    O26       2.24176      .   S
    Zr22   O27       1.57078      .   S
    N5     O27       2.43708      .   S
    Zr22   O28       1.35248      .   S
    N9     O28       2.22682      .   S
    Zr29   O30       1.57059      .   S
    N12    O30       2.43619      .   S
    Zr29   O31       1.35246      .   S
    N20    O31       2.22679      .   S
    Zr29   O32       1.44123      .   S
    N18    O32       2.24182      .   S
    Zr29   O33       1.56961      .   S
    N15    O33       2.43527      .   S
    Zr29   O34       1.35546      .   S
    N20    O34       2.22493      .   S
    Zr29   O35       1.44137      .   S
    N3     O35       2.24177      .   S
    Zr36   O37       1.35246      .   S
    N21    O37       2.22679      .   S
    Zr36   O38       1.44124      .   S
    N6     O38       2.24182      .   S
    Zr36   O39       1.57060      .   S
    N17    O39       2.43619      .   S
    Zr36   O40       1.56962      .   S
    N14    O40       2.43528      .   S
    Zr36   O41       1.35546      .   S
    N21    O41       2.22493      .   S
    Zr36   O42       1.44137      .   S
    N0     O42       2.24177      .   S
    Zr43   O44       1.04208      .   S
    N15    O44       2.13314      .   S
    Zr43   O45       1.03546      .   S
    N18    O45       2.13421  1_565   S
    Zr43   O46       1.03566      .   S
    N1     O46       2.13496  1_556   S
    Zr43   O47       1.04233      .   S
    N5     O47       2.13382      .   S
    Zr48   O49       1.26526      .   S
    N17    O49       2.72951      .   S
    Zr48   O50       1.27073      .   S
    N13    O50       2.73567  1_545   S
    Zr48   O51       0.94002      .   S
    N8     O51       1.92461  1_545   S
    Zr48   O52       1.26507      .   S
    N10    O52       2.72892      .   S
    Zr48   O53       1.27059      .   S
    N0     O53       2.73508  1_554   S
    Zr48   O54       0.94018      .   S
    N8     O54       1.92447  1_545   S
    Zr55   O56       1.04265  1_655   S
    N17    O56       2.13471      .   S
    Zr55   O57       1.04208      .   S
    N11    O57       2.13313      .   S
    Zr55   O58       1.03549      .   S
    N16    O58       2.13431  1_545   S
    Zr55   O59       1.03542  1_655   S
    N0     O59       2.13424  1_554   S
    Zr60   O61       1.26507      .   S
    N5     O61       2.72889      .   S
    Zr60   O62       1.26499      .   S
    N14    O62       2.72876      .   S
    Zr60   O63       0.94020      .   S
    N8     O63       1.92457  1_556   S
    Zr60   O64       1.27075      .   S
    N6     O64       2.73567  1_565   S
    Zr60   O65       1.27072      .   S
    N1     O65       2.73552  1_556   S
    Zr60   O66       0.94004      .   S
    N8     O66       1.92471  1_556   S
    Zr67   O68       1.26501      .   S
    N15    O68       2.72880      .   S
    Zr67   O69       0.94015      .   S
    N7     O69       1.92463  1_556   S
    Zr67   O70       1.27076      .   S
    N18    O70       2.73569  1_565   S
    Zr67   O71       0.94021      .   S
    N7     O71       1.92458  1_556   S
    Zr67   O72       1.27071      .   S
    N2     O72       2.73549  1_556   S
    Zr67   O73       1.26506      .   S
    N4     O73       2.72887      .   S
    Zr74   O75       1.56961      .   S
    N11    O75       2.43535      .   S
    Zr74   O76       1.35545      .   S
    N19    O76       2.22494      .   S
    Zr74   O77       1.44108      .   S
    N2     O77       2.24122      .   S
    Zr74   O78       1.44120      .   S
    N16    O78       2.24175      .   S
    Zr74   O79       1.35248      .   S
    N19    O79       2.22682      .   S
    Zr74   O80       1.57078      .   S
    N4     O80       2.43707      .   S
    Zr81   O82       1.04225      .   S
    N14    O82       2.13339      .   S
    Zr81   O83       1.03553  1_455   S
    N2     O83       2.13480  1_556   S
    Zr81   O84       1.03557      .   S
    N6     O84       2.13437  1_565   S
    Zr81   O85       1.04214  1_455   S
    N4     O85       2.13356      .   S
    Zr86   O87       1.27072      .   S
    N16    O87       2.73565  1_545   S
    Zr86   O88       0.94002      .   S
    N7     O88       1.92459  1_545   S
    Zr86   O89       0.94018      .   S
    N7     O89       1.92446  1_545   S
    Zr86   O90       1.27060      .   S
    N3     O90       2.73511  1_554   S
    Zr86   O91       1.26527      .   S
    N12    O91       2.72953      .   S
    Zr86   O92       1.26502      .   S
    N11    O92       2.72878      .   S
    Zr93   O94       1.03548      .   S
    N13    O94       2.13429  1_545   S
    Zr93   O95       1.04267      .   S
    N12    O95       2.13474      .   S
    Zr93   O96       1.03543      .   S
    N3     O96       2.13426  1_554   S
    Zr93   O97       1.04208      .   S
    N10    O97       2.13314      .   S
