# CIF file generated by openbabel 2.4.90, see http://openbabel.sf.net
data_I
_chemical_name_common ''
_cell_length_a 12.316
_cell_length_b 16.202
_cell_length_c 17.134
_cell_angle_alpha 89.853
_cell_angle_beta 89.941
_cell_angle_gamma 90.059
_space_group_name_H-M_alt 'P 1'
_space_group_name_Hall 'P 1'
loop_
    _symmetry_equiv_pos_as_xyz
    x,y,z
loop_
    _atom_site_label
    _atom_site_type_symbol
    _atom_site_fract_x
    _atom_site_fract_y
    _atom_site_fract_z
    _atom_site_occupancy
    C0      C    0.43735   0.06029   0.00000   1.000
    C1      C    0.43734   0.56029   0.00000   1.000
    N2      N    0.38082   0.02836   0.00000   1.000
    N3      N    0.38081   0.52837   0.00000   1.000
loop_
    _geom_bond_atom_site_label_1
    _geom_bond_atom_site_label_2
    _geom_bond_distance
    _geom_bond_site_symmetry_2
    _ccdc_geom_bond_type
    N3     C1        0.86696      .   S
    N2     C0        0.86693      .   S
