# CIF file generated by openbabel 2.4.90, see http://openbabel.sf.net
data_I
_chemical_name_common ''
_cell_length_a 12.316
_cell_length_b 16.202
_cell_length_c 17.134
_cell_angle_alpha 89.853
_cell_angle_beta 89.941
_cell_angle_gamma 90.059
_space_group_name_H-M_alt 'P 1'
_space_group_name_Hall 'P 1'
loop_
    _symmetry_equiv_pos_as_xyz
    x,y,z
loop_
    _atom_site_label
    _atom_site_type_symbol
    _atom_site_fract_x
    _atom_site_fract_y
    _atom_site_fract_z
    _atom_site_occupancy
    C0      C    0.43877   0.19025   0.41225   1.000
    C1      C    0.43877   0.69026   0.41225   1.000
    C2      C    0.40444   0.42162   0.19235   1.000
    C3      C    0.40445   0.92163   0.19236   1.000
    C4      C    0.57417   0.37194   0.47140   1.000
    C5      C    0.57417   0.87194   0.47140   1.000
    C6      C    0.20987   0.43823   0.42244   1.000
    C7      C    0.20988   0.93824   0.42244   1.000
    C8      C    0.93832   0.31080   0.58820   1.000
    C9      C    0.93832   0.81081   0.58820   1.000
    C10     C    0.90378   0.07971   0.80740   1.000
    C11     C    0.90377   0.57972   0.80741   1.000
    C12     C    0.07398   0.12917   0.52876   1.000
    C13     C    0.07398   0.62918   0.52876   1.000
    C14     C    0.70924   0.06275   0.57810   1.000
    C15     C    0.70924   0.56275   0.57809   1.000
    C16     C    0.40434   0.32959   0.69259   1.000
    C17     C    0.40436   0.82959   0.69259   1.000
    C18     C    0.57305   0.37854   0.97138   1.000
    C19     C    0.57306   0.87855   0.97138   1.000
    C20     C    0.20863   0.31208   0.92282   1.000
    C21     C    0.20864   0.81209   0.92282   1.000
    C22     C    0.93720   0.43902   0.08755   1.000
    C23     C    0.93721   0.93903   0.08755   1.000
    C24     C    0.90412   0.17091   0.30793   1.000
    C25     C    0.90412   0.67091   0.30793   1.000
    C26     C    0.07284   0.12082   0.02851   1.000
    C27     C    0.07284   0.62083   0.02850   1.000
    C28     C    0.70834   0.18683   0.07783   1.000
    C29     C    0.70833   0.68684   0.07784   1.000
    N30     N    0.38222   0.22170   0.45900   1.000
    N31     N    0.38222   0.72171   0.45899   1.000
    N32     N    0.33735   0.43742   0.14552   1.000
    N33     N    0.33736   0.93743   0.14552   1.000
    N34     N    0.63979   0.32260   0.45291   1.000
    N35     N    0.63979   0.82260   0.45291   1.000
    N36     N    0.19570   0.38384   0.46745   1.000
    N37     N    0.19570   0.88385   0.46745   1.000
    N38     N    0.88202   0.27920   0.54141   1.000
    N39     N    0.88203   0.77921   0.54141   1.000
    N40     N    0.83692   0.06355   0.85443   1.000
    N41     N    0.83691   0.56355   0.85443   1.000
    N42     N    0.13950   0.17857   0.54744   1.000
    N43     N    0.13951   0.67858   0.54744   1.000
    N44     N    0.69505   0.11729   0.53330   1.000
    N45     N    0.69505   0.61729   0.53329   1.000
    N46     N    0.33796   0.31323   0.64547   1.000
    N47     N    0.33797   0.81324   0.64547   1.000
    N48     N    0.63856   0.42802   0.95253   1.000
    N49     N    0.63856   0.92804   0.95252   1.000
    N50     N    0.19450   0.36603   0.00000   1.000
    N51     N    0.19451   0.86604   0.00000   1.000
    N52     N    0.88095   0.47073   0.04070   1.000
    N53     N    0.88096   0.97073   0.04070   1.000
    N54     N    0.83774   0.18755   0.35504   1.000
    N55     N    0.83775   0.68756   0.35504   1.000
    N56     N    0.13849   0.07147   0.04707   1.000
    N57     N    0.13848   0.57148   0.04707   1.000
    N58     N    0.69415   0.13274   0.03278   1.000
    N59     N    0.69415   0.63275   0.03279   1.000
loop_
    _geom_bond_atom_site_label_1
    _geom_bond_atom_site_label_2
    _geom_bond_distance
    _geom_bond_site_symmetry_2
    _ccdc_geom_bond_type
    N51    C21       1.59651  1_554   S
    N50    C20       1.59660  1_554   S
    C27    N57       1.18096      .   S
    C26    N56       1.18096      .   S
    N58    C28       1.18226      .   S
    N59    C29       1.18225      .   S
    N53    C23       1.17813      .   S
    N52    C22       1.17813      .   S
    N32    C2        1.18019      .   S
    N33    C3        1.18020      .   S
    C25    N55       1.18014      .   S
    C24    N54       1.18014      .   S
    C1     N31       1.17813      .   S
    C0     N30       1.17812      .   S
    C6     N36       1.18223      .   S
    C7     N37       1.18222      .   S
    N35    C5        1.18101      .   S
    N34    C4        1.18101      .   S
    C12    N42       1.18104      .   S
    C13    N43       1.18102      .   S
    N45    C15       1.18225      .   S
    N44    C14       1.18224      .   S
    N39    C9        1.17812      .   S
    N38    C8        1.17813      .   S
    N46    C16       1.18016      .   S
    N47    C17       1.18018      .   S
    C10    N40       1.18021      .   S
    C11    N41       1.18020      .   S
    N49    C19       1.18101      .   S
    N48    C18       1.18101      .   S
