# CIF file generated by openbabel 2.4.90, see http://openbabel.sf.net
data_I
_chemical_name_common ''
_cell_length_a 12.316
_cell_length_b 16.202
_cell_length_c 17.134
_cell_angle_alpha 89.853
_cell_angle_beta 89.941
_cell_angle_gamma 90.059
_space_group_name_H-M_alt 'P 1'
_space_group_name_Hall 'P 1'
loop_
    _symmetry_equiv_pos_as_xyz
    x,y,z
loop_
    _atom_site_label
    _atom_site_type_symbol
    _atom_site_fract_x
    _atom_site_fract_y
    _atom_site_fract_z
    _atom_site_occupancy
    Cd0     Cd   0.25789   0.77988   0.53580   1.000
    Cd1     Cd   0.75754   0.22112   0.46470   1.000
    Cd2     Cd   0.75755   0.72112   0.46469   1.000
    Cd3     Cd   0.25658   0.97015   0.03580   1.000
    Cd4     Cd   0.25657   0.47016   0.03580   1.000
    Cd5     Cd   0.75665   0.52945   0.96410   1.000
    Cd6     Cd   0.75666   0.00000   0.96410   1.000
    Hg7     Hg   0.43942   0.50179   0.36122   1.000
    Hg8     Hg   0.43943   0.00000   0.36123   1.000
    Hg9     Hg   0.93877   0.99930   0.63877   1.000
    Hg10    Hg   0.93877   0.49931   0.63877   1.000
    Hg11    Hg   0.43818   0.24920   0.86164   1.000
    Hg12    Hg   0.43819   0.74921   0.86165   1.000
    Hg13    Hg   0.93797   0.25019   0.13842   1.000
    Hg14    Hg   0.93797   0.75020   0.13842   1.000
    C15     C    0.43877   0.19025   0.41225   1.000
    C16     C    0.43877   0.69026   0.41225   1.000
    C17     C    0.40444   0.42162   0.19235   1.000
    C18     C    0.40445   0.92163   0.19236   1.000
    C19     C    0.57417   0.37194   0.47140   1.000
    C20     C    0.57417   0.87194   0.47140   1.000
    C21     C    0.20987   0.43823   0.42244   1.000
    C22     C    0.20988   0.93824   0.42244   1.000
    C23     C    0.93832   0.31080   0.58820   1.000
    C24     C    0.93832   0.81081   0.58820   1.000
    C25     C    0.90378   0.07971   0.80740   1.000
    C26     C    0.90377   0.57972   0.80741   1.000
    C27     C    0.07398   0.12917   0.52876   1.000
    C28     C    0.07398   0.62918   0.52876   1.000
    C29     C    0.70924   0.06275   0.57810   1.000
    C30     C    0.70924   0.56275   0.57809   1.000
    C31     C    0.43735   0.06029   0.00000   1.000
    Cd32    Cd   0.25788   0.27988   0.53580   1.000
    C33     C    0.43734   0.56029   0.00000   1.000
    C34     C    0.40434   0.32959   0.69259   1.000
    C35     C    0.40436   0.82959   0.69259   1.000
    C36     C    0.57305   0.37854   0.97138   1.000
    C37     C    0.57306   0.87855   0.97138   1.000
    C38     C    0.20863   0.31208   0.92282   1.000
    C39     C    0.20864   0.81209   0.92282   1.000
    C40     C    0.93720   0.43902   0.08755   1.000
    C41     C    0.93721   0.93903   0.08755   1.000
    C42     C    0.90412   0.17091   0.30793   1.000
    C43     C    0.90412   0.67091   0.30793   1.000
    C44     C    0.07284   0.12082   0.02851   1.000
    C45     C    0.07284   0.62083   0.02850   1.000
    C46     C    0.70834   0.18683   0.07783   1.000
    C47     C    0.70833   0.68684   0.07784   1.000
    S48     S    0.52009   0.14859   0.34695   1.000
    S49     S    0.52009   0.64859   0.34694   1.000
    S50     S    0.48322   0.43980   0.49879   1.000
    S51     S    0.48323   0.93980   0.49880   1.000
    S52     S    0.22638   0.51464   0.36058   1.000
    S53     S    0.22639   0.00000   0.36058   1.000
    S54     S    0.49799   0.39621   0.25639   1.000
    S55     S    0.49800   0.89622   0.25639   1.000
    S56     S    0.01927   0.35270   0.65356   1.000
    S57     S    0.01927   0.85271   0.65356   1.000
    S58     S    0.98316   0.06122   0.50118   1.000
    S59     S    0.98316   0.56123   0.50118   1.000
    S60     S    0.72573   0.98616   0.63970   1.000
    S61     S    0.72573   0.48617   0.63970   1.000
    S62     S    0.99695   0.10563   0.74308   1.000
    S63     S    0.99694   0.60564   0.74308   1.000
    S64     S    0.51859   0.10265   0.84659   1.000
    S65     S    0.51860   0.60265   0.84659   1.000
    S66     S    0.48222   0.31046   0.00000   1.000
    S67     S    0.48223   0.81047   0.00000   1.000
    S68     S    0.22510   0.23625   0.86073   1.000
    S69     S    0.22511   0.73626   0.86073   1.000
    S70     S    0.49687   0.35573   0.75706   1.000
    S71     S    0.49689   0.85573   0.75706   1.000
    S72     S    0.01812   0.39702   0.15300   1.000
    S73     S    0.01812   0.89702   0.15300   1.000
    S74     S    0.98185   0.18868   0.00101   1.000
    S75     S    0.98185   0.68869   0.00100   1.000
    S76     S    0.72486   0.26280   0.13977   1.000
    S77     S    0.72486   0.76281   0.13977   1.000
    S78     S    0.99663   0.14441   0.24351   1.000
    S79     S    0.99663   0.64441   0.24350   1.000
    N80     N    0.38222   0.22170   0.45900   1.000
    N81     N    0.38222   0.72171   0.45899   1.000
    N82     N    0.33735   0.43742   0.14552   1.000
    N83     N    0.33736   0.93743   0.14552   1.000
    N84     N    0.63979   0.32260   0.45291   1.000
    N85     N    0.63979   0.82260   0.45291   1.000
    N86     N    0.19570   0.38384   0.46745   1.000
    N87     N    0.19570   0.88385   0.46745   1.000
    N88     N    0.88202   0.27920   0.54141   1.000
    N89     N    0.88203   0.77921   0.54141   1.000
    N90     N    0.83692   0.06355   0.85443   1.000
    N91     N    0.83691   0.56355   0.85443   1.000
    N92     N    0.13950   0.17857   0.54744   1.000
    N93     N    0.13951   0.67858   0.54744   1.000
    N94     N    0.69505   0.11729   0.53330   1.000
    N95     N    0.69505   0.61729   0.53329   1.000
    N96     N    0.38082   0.02836   0.00000   1.000
    N97     N    0.38081   0.52837   0.00000   1.000
    N98     N    0.33796   0.31323   0.64547   1.000
    N99     N    0.33797   0.81324   0.64547   1.000
    N100    N    0.63856   0.42802   0.95253   1.000
    N101    N    0.63856   0.92804   0.95252   1.000
    N102    N    0.19450   0.36603   0.00000   1.000
    N103    N    0.19451   0.86604   0.00000   1.000
    N104    N    0.88095   0.47073   0.04070   1.000
    N105    N    0.88096   0.97073   0.04070   1.000
    N106    N    0.83774   0.18755   0.35504   1.000
    N107    N    0.83775   0.68756   0.35504   1.000
    N108    N    0.13849   0.07147   0.04707   1.000
    N109    N    0.13848   0.57148   0.04707   1.000
    N110    N    0.69415   0.13274   0.03278   1.000
    N111    N    0.69415   0.63275   0.03279   1.000
loop_
    _geom_bond_atom_site_label_1
    _geom_bond_atom_site_label_2
    _geom_bond_distance
    _geom_bond_site_symmetry_2
    _ccdc_geom_bond_type
    N97    C33       0.86696      .   S
    N97    Cd4       1.89716      .   S
    S67    Hg12      2.62914  1_554   S
    S67    C37       1.64383  1_554   S
    N96    C31       0.86693      .   S
    N96    Cd3       1.89713  1_545   S
    S66    Hg11      2.62916  1_554   S
    S66    C36       1.64383  1_554   S
    N103   Cd3       1.95182      .   S
    N103   C39       1.59651  1_554   S
    N102   Cd4       1.95201      .   S
    N102   C38       1.59660  1_554   S
    S75    C45       1.63947  1_655   S
    S75    Hg14      2.61524      .   S
    S74    C44       1.63947  1_655   S
    S74    Hg13      2.61523      .   S
    C45    N109      1.18096      .   S
    C44    N108      1.18096      .   S
    N110   C46       1.18226      .   S
    N110   Cd6       2.57243  1_554   S
    N111   C47       1.18225      .   S
    N111   Cd5       2.18845  1_554   S
    Cd4    N109      2.20294      .   S
    Cd4    N82       2.19211      .   S
    Cd3    N108      2.20295  1_565   S
    Cd3    N83       2.19204      .   S
    N105   C41       1.17813      .   S
    N105   Cd6       2.07207  1_564   S
    N104   C40       1.17813      .   S
    N104   Cd5       2.22987  1_554   S
    C46    S76       1.63991      .   S
    C47    S77       1.63991      .   S
    C41    S73       1.64732  1_655   S
    C40    S72       1.64730  1_655   S
    Hg14   S77       2.63289      .   S
    Hg14   S73       2.58740  1_655   S
    Hg14   S79       2.58668      .   S
    Hg13   S76       2.63289      .   S
    Hg13   S72       2.58742  1_655   S
    Hg13   S78       2.58666      .   S
    N82    C17       1.18019      .   S
    N83    C18       1.18020      .   S
    C17    S54       1.64375      .   S
    C18    S55       1.64375      .   S
    S79    C43       1.64373      .   S
    S78    C42       1.64374      .   S
    S54    Hg7       2.58631      .   S
    S55    Hg8       2.56701  1_565   S
    C43    N107      1.18014      .   S
    C42    N106      1.18014      .   S
    S49    Hg7       2.58755      .   S
    S49    C16       1.64727      .   S
    S48    Hg8       2.61418      .   S
    S48    C15       1.64727      .   S
    N107   Cd2       2.19174      .   S
    N106   Cd1       2.19176      .   S
    S52    Hg7       2.63229      .   S
    S52    C21       1.63998      .   S
    S53    Hg8       2.62385      .   S
    S53    C22       1.46960  1_545   S
    Hg7    S50       2.61679      .   S
    Hg8    S51       2.60575  1_545   S
    C16    N81       1.17813      .   S
    C15    N80       1.17812      .   S
    C21    N86       1.18223      .   S
    C22    N87       1.18222      .   S
    N85    Cd2       2.20253      .   S
    N85    C20       1.18101      .   S
    N84    Cd1       2.20254      .   S
    N84    C19       1.18101      .   S
    N81    Cd0       2.22940      .   S
    N80    Cd32      2.22941      .   S
    Cd2    N95       2.18844      .   S
    Cd2    N89       2.22965      .   S
    Cd1    N94       2.18844      .   S
    Cd1    N88       2.22964      .   S
    N86    Cd32      2.18856      .   S
    N87    Cd0       2.18857      .   S
    C19    S50       1.63947      .   S
    C20    S51       1.63947      .   S
    S58    C27       1.63947  1_655   S
    S58    Hg9       2.61663  1_545   S
    S59    C28       1.63949  1_655   S
    S59    Hg10      2.61663      .   S
    C27    N92       1.18104      .   S
    C28    N93       1.18102      .   S
    N95    C30       1.18225      .   S
    N94    C29       1.18224      .   S
    Cd32   N92       2.20276      .   S
    Cd32   N98       2.19171      .   S
    Cd0    N93       2.20275      .   S
    Cd0    N99       2.19170      .   S
    N89    C24       1.17812      .   S
    N88    C23       1.17813      .   S
    C30    S61       1.63998      .   S
    C29    S60       1.63997  1_545   S
    C23    S56       1.64734  1_655   S
    C24    S57       1.64733  1_655   S
    Hg9    S60       2.63233      .   S
    Hg9    S57       2.58654  1_655   S
    Hg9    S62       2.58678  1_565   S
    Hg10   S61       2.63232      .   S
    Hg10   S56       2.58679  1_655   S
    Hg10   S63       2.58679      .   S
    N98    C34       1.18016      .   S
    N99    C35       1.18018      .   S
    C34    S70       1.64374      .   S
    C35    S71       1.64373      .   S
    S62    C25       1.64370      .   S
    S63    C26       1.64370      .   S
    S70    Hg11      2.58681      .   S
    S71    Hg12      2.58682      .   S
    C25    N90       1.18021      .   S
    C26    N91       1.18020      .   S
    S64    Hg11      2.58704      .   S
    S65    Hg12      2.58704      .   S
    N90    Cd6       2.35635      .   S
    N91    Cd5       2.19164      .   S
    S68    Hg11      2.63253      .   S
    S68    C38       1.63991      .   S
    S69    Hg12      2.63251      .   S
    S69    C39       1.63990      .   S
    N101   Cd6       1.87416  1_565   S
    N101   C37       1.18101      .   S
    N100   Cd5       2.20284      .   S
    N100   C36       1.18101      .   S
