# CIF file generated by openbabel 2.4.90, see http://openbabel.sf.net
data_I
_chemical_name_common ''
_cell_length_a 12.316
_cell_length_b 16.202
_cell_length_c 17.134
_cell_angle_alpha 89.853
_cell_angle_beta 89.941
_cell_angle_gamma 90.059
_space_group_name_H-M_alt 'P 1'
_space_group_name_Hall 'P 1'
loop_
    _symmetry_equiv_pos_as_xyz
    x,y,z
loop_
    _atom_site_label
    _atom_site_type_symbol
    _atom_site_fract_x
    _atom_site_fract_y
    _atom_site_fract_z
    _atom_site_occupancy
    Cd0     Cd   0.25789   0.77988   0.53580   1.000
    Cd1     Cd   0.75754   0.22112   0.46470   1.000
    Cd2     Cd   0.75755   0.72112   0.46469   1.000
    Cd3     Cd   0.25658   0.97015   0.03580   1.000
    Cd4     Cd   0.25657   0.47016   0.03580   1.000
    Cd5     Cd   0.75665   0.52945   0.96410   1.000
    Cd6     Cd   0.75666   0.00000   0.96410   1.000
    Hg7     Hg   0.43942   0.50179   0.36122   1.000
    Hg8     Hg   0.43943   0.00000   0.36123   1.000
    Hg9     Hg   0.93877   0.99930   0.63877   1.000
    Hg10    Hg   0.93877   0.49931   0.63877   1.000
    Hg11    Hg   0.43818   0.24920   0.86164   1.000
    Hg12    Hg   0.43819   0.74921   0.86165   1.000
    Hg13    Hg   0.93797   0.25019   0.13842   1.000
    Hg14    Hg   0.93797   0.75020   0.13842   1.000
    Cd15    Cd   0.25788   0.27988   0.53580   1.000
    S16     S    0.52009   0.14859   0.34695   1.000
    S17     S    0.52009   0.64859   0.34694   1.000
    S18     S    0.48322   0.43980   0.49879   1.000
    S19     S    0.48323   0.93980   0.49880   1.000
    S20     S    0.22638   0.51464   0.36058   1.000
    S21     S    0.22639   0.00000   0.36058   1.000
    S22     S    0.49799   0.39621   0.25639   1.000
    S23     S    0.49800   0.89622   0.25639   1.000
    S24     S    0.01927   0.35270   0.65356   1.000
    S25     S    0.01927   0.85271   0.65356   1.000
    S26     S    0.98316   0.06122   0.50118   1.000
    S27     S    0.98316   0.56123   0.50118   1.000
    S28     S    0.72573   0.98616   0.63970   1.000
    S29     S    0.72573   0.48617   0.63970   1.000
    S30     S    0.99695   0.10563   0.74308   1.000
    S31     S    0.99694   0.60564   0.74308   1.000
    S32     S    0.51859   0.10265   0.84659   1.000
    S33     S    0.51860   0.60265   0.84659   1.000
    S34     S    0.48222   0.31046   0.00000   1.000
    S35     S    0.48223   0.81047   0.00000   1.000
    S36     S    0.22510   0.23625   0.86073   1.000
    S37     S    0.22511   0.73626   0.86073   1.000
    S38     S    0.49687   0.35573   0.75706   1.000
    S39     S    0.49689   0.85573   0.75706   1.000
    S40     S    0.01812   0.39702   0.15300   1.000
    S41     S    0.01812   0.89702   0.15300   1.000
    S42     S    0.98185   0.18868   0.00101   1.000
    S43     S    0.98185   0.68869   0.00100   1.000
    S44     S    0.72486   0.26280   0.13977   1.000
    S45     S    0.72486   0.76281   0.13977   1.000
    S46     S    0.99663   0.14441   0.24351   1.000
    S47     S    0.99663   0.64441   0.24350   1.000
loop_
    _geom_bond_atom_site_label_1
    _geom_bond_atom_site_label_2
    _geom_bond_distance
    _geom_bond_site_symmetry_2
    _ccdc_geom_bond_type
    S35    Hg12      2.62914  1_554   S
    S34    Hg11      2.62916  1_554   S
    S43    Hg14      2.61524      .   S
    S42    Hg13      2.61523      .   S
    Hg14   S45       2.63289      .   S
    Hg14   S41       2.58740  1_655   S
    Hg14   S47       2.58668      .   S
    Hg13   S44       2.63289      .   S
    Hg13   S40       2.58742  1_655   S
    Hg13   S46       2.58666      .   S
    S22    Hg7       2.58631      .   S
    S23    Hg8       2.56701  1_565   S
    S17    Hg7       2.58755      .   S
    S16    Hg8       2.61418      .   S
    S20    Hg7       2.63229      .   S
    S21    Hg8       2.62385      .   S
    Hg7    S18       2.61679      .   S
    Hg8    S19       2.60575  1_545   S
    S26    Hg9       2.61663  1_545   S
    S27    Hg10      2.61663      .   S
    Hg9    S28       2.63233      .   S
    Hg9    S25       2.58654  1_655   S
    Hg9    S30       2.58678  1_565   S
    Hg10   S29       2.63232      .   S
    Hg10   S24       2.58679  1_655   S
    Hg10   S31       2.58679      .   S
    S38    Hg11      2.58681      .   S
    S39    Hg12      2.58682      .   S
    S32    Hg11      2.58704      .   S
    S33    Hg12      2.58704      .   S
    S36    Hg11      2.63253      .   S
    S37    Hg12      2.63251      .   S
