# CIF file generated by openbabel 2.4.90, see http://openbabel.sf.net
data_I
_chemical_name_common ''
_cell_length_a 12.316
_cell_length_b 16.202
_cell_length_c 17.134
_cell_angle_alpha 89.853
_cell_angle_beta 89.941
_cell_angle_gamma 90.059
_space_group_name_H-M_alt 'P 1'
_space_group_name_Hall 'P 1'
loop_
    _symmetry_equiv_pos_as_xyz
    x,y,z
loop_
    _atom_site_label
    _atom_site_type_symbol
    _atom_site_fract_x
    _atom_site_fract_y
    _atom_site_fract_z
    _atom_site_occupancy
    N0      N    0.10566   0.59615   0.03779   1.000
    N1      N    0.91017   0.29500   0.56481   1.000
    N2      N    0.20158   0.83907   0.96141   1.000
    N3      N    0.90908   0.95488   0.06412   1.000
    N4      N    0.41050   0.70598   0.43562   1.000
    N5      N    0.87093   0.17923   0.33149   1.000
    N6      N    0.37091   0.92953   0.16894   1.000
    N7      N    0.87034   0.57164   0.83092   1.000
    N8      N    0.70124   0.65979   0.05531   1.000
    N9      N    0.70215   0.09002   0.55570   1.000
    N10     N    0.60580   0.40328   0.96195   1.000
    N11     N    0.87093   0.67923   0.33149   1.000
    N12     N    0.10674   0.15387   0.53810   1.000
    N13     N    0.37115   0.32141   0.66903   1.000
    N14     N    0.41050   0.20598   0.43562   1.000
    N15     N    0.60698   0.84727   0.46215   1.000
    N16     N    0.20278   0.41104   0.44494   1.000
    N17     N    0.70215   0.59002   0.55569   1.000
    N18     N    0.90908   0.45487   0.06413   1.000
    N19     N    0.70125   0.15979   0.05530   1.000
    N20     N    0.37089   0.42952   0.16894   1.000
    N21     N    0.87035   0.07163   0.83091   1.000
    N22     N    0.91018   0.79501   0.56481   1.000
    N23     N    0.10675   0.65388   0.53810   1.000
    N24     N    0.20279   0.91105   0.44495   1.000
    N25     N    0.20157   0.33906   0.96141   1.000
    N26     N    0.60698   0.34727   0.46215   1.000
    N27     N    0.37116   0.82141   0.66903   1.000
    N28     N    0.10567   0.09614   0.03779   1.000
    N29     N    0.60581   0.90330   0.96195   1.000
    Zr30    Zr   0.75754   0.22112   0.46470   1.000
    O31     O    0.81126   0.24685   0.49931   1.000
    O32     O    0.70518   0.26534   0.46259   1.000
    O33     O    0.73588   0.17537   0.49602   1.000
    O34     O    0.79591   0.20645   0.41769   1.000
    Zr35    Zr   0.93188   0.74863   0.13514   1.000
    O36     O    0.99919   0.68704   0.08071   1.000
    O37     O    0.92127   0.70854   0.21937   1.000
    O38     O    0.82040   0.72047   0.10860   1.000
    O39     O    0.93763   0.84254   0.11367   1.000
    Zr40    Zr   0.93277   0.50101   0.63526   1.000
    O41     O    0.00022   0.56278   0.58090   1.000
    O42     O    0.93863   0.40719   0.61405   1.000
    O43     O    0.82130   0.52913   0.60878   1.000
    O44     O    0.92156   0.54158   0.71917   1.000
    Zr45    Zr   0.93277   0.00101   0.63526   1.000
    O46     O    0.00021   0.06277   0.58089   1.000
    O47     O    0.93863   0.90719   0.61405   1.000
    O48     O    0.82129   0.02912   0.60878   1.000
    O49     O    0.92157   0.04158   0.71917   1.000
    Zr50    Zr   0.43342   0.50021   0.36478   1.000
    O51     O    0.42224   0.45971   0.28072   1.000
    O52     O    0.43919   0.59396   0.38620   1.000
    O53     O    0.32194   0.47197   0.39150   1.000
    O54     O    0.50063   0.43839   0.41921   1.000
    Zr55    Zr   0.75666   0.00000   0.96410   1.000
    O56     O    0.73499   0.05654   0.99548   1.000
    O57     O    0.79511   0.02585   0.91709   1.000
    O58     O    0.70418   0.96683   0.96211   1.000
    O59     O    0.81030   0.98506   0.99868   1.000
    Zr60    Zr   0.43343   0.99692   0.36479   1.000
    O61     O    0.50063   0.93675   0.41921   1.000
    O62     O    0.42225   0.95808   0.28072   1.000
    O63     O    0.43919   0.09231   0.38620   1.000
    O64     O    0.32194   0.96850   0.39151   1.000
    Zr65    Zr   0.43220   0.75086   0.86521   1.000
    O66     O    0.32072   0.77874   0.89590   1.000
    O67     O    0.49947   0.81238   0.91951   1.000
    O68     O    0.42155   0.79145   0.78107   1.000
    Zr69    Zr   0.43220   0.25086   0.86520   1.000
    O70     O    0.42154   0.29145   0.78106   1.000
    O71     O    0.32071   0.27873   0.89590   1.000
    O72     O    0.49946   0.31237   0.91951   1.000
    Zr73    Zr   0.75755   0.72112   0.46469   1.000
    O74     O    0.70519   0.76535   0.46259   1.000
    O75     O    0.81127   0.74686   0.49931   1.000
    O76     O    0.73589   0.67537   0.49602   1.000
    O77     O    0.79592   0.70646   0.41769   1.000
    Zr78    Zr   0.93189   0.24862   0.13514   1.000
    O79     O    0.99920   0.18703   0.08071   1.000
    O80     O    0.92127   0.20853   0.21937   1.000
    O81     O    0.93763   0.34253   0.11367   1.000
    O82     O    0.82040   0.22046   0.10860   1.000
    Zr83    Zr   0.25658   0.97015   0.03580   1.000
    O84     O    0.23507   0.92437   0.01273   1.000
    O85     O    0.20409   0.01431   0.03771   1.000
    O86     O    0.29526   0.95591   0.08280   1.000
    Zr87    Zr   0.25788   0.27988   0.53580   1.000
    O88     O    0.23633   0.32566   0.50454   1.000
    O89     O    0.29621   0.29443   0.58281   1.000
    O90     O    0.20530   0.23571   0.53783   1.000
    O91     O    0.31157   0.25413   0.50115   1.000
    Zr92    Zr   0.25657   0.47016   0.03580   1.000
    O93     O    0.23506   0.42437   0.01273   1.000
    O94     O    0.29525   0.45591   0.08280   1.000
    O95     O    0.20408   0.51432   0.03771   1.000
    Zr96    Zr   0.25789   0.77988   0.53580   1.000
    O97     O    0.31158   0.75414   0.50115   1.000
    O98     O    0.23634   0.82567   0.50454   1.000
    O99     O    0.29622   0.79443   0.58282   1.000
    O100    O    0.20530   0.73572   0.53783   1.000
    Zr101   Zr   0.75665   0.52945   0.96410   1.000
    O102    O    0.70418   0.48523   0.96212   1.000
    O103    O    0.81029   0.50347   0.99868   1.000
    O104    O    0.73498   0.57495   0.99549   1.000
    O105    O    0.79510   0.54426   0.91710   1.000
loop_
    _geom_bond_atom_site_label_1
    _geom_bond_atom_site_label_2
    _geom_bond_distance
    _geom_bond_site_symmetry_2
    _ccdc_geom_bond_type
    Zr30   O31       0.98224      .   S
    N1     O31       1.83227      .   S
    Zr30   O32       0.96509      .   S
    N26    O32       1.79671      .   S
    Zr30   O33       0.95186      .   S
    N9     O33       1.76660      .   S
    Zr30   O34       0.96384      .   S
    N5     O34       1.79744      .   S
    Zr35   O36       1.59926      .   S
    N0     O36       2.10623  1_455   S
    Zr35   O37       1.58633      .   S
    N11    O37       2.07174      .   S
    Zr35   O38       1.51699      .   S
    N8     O38       1.98953      .   S
    Zr35   O39       1.56602      .   S
    N3     O39       2.03746      .   S
    Zr40   O41       1.59713  1_655   S
    N23    O41       2.10387      .   S
    Zr40   O42       1.56547      .   S
    N1     O42       2.03619      .   S
    Zr40   O43       1.51656      .   S
    N17    O43       1.98877      .   S
    Zr40   O44       1.58838      .   S
    N7     O44       2.07460      .   S
    Zr45   O46       1.59711  1_655   S
    N12    O46       2.10383      .   S
    Zr45   O47       1.56537  1_545   S
    N22    O47       2.03610      .   S
    Zr45   O48       1.51656      .   S
    N9     O48       1.98876      .   S
    Zr45   O49       1.58835      .   S
    N21    O49       2.07458      .   S
    Zr50   O51       1.59034      .   S
    N20    O51       2.07702      .   S
    Zr50   O52       1.56507      .   S
    N4     O52       2.03596      .   S
    Zr50   O53       1.51670      .   S
    N16    O53       1.98900      .   S
    Zr50   O54       1.59884      .   S
    N26    O54       2.10643      .   S
    Zr55   O56       1.09649      .   S
    N19    O56       2.00771  1_554   S
    Zr55   O57       1.02247      .   S
    N21    O57       1.89187      .   S
    Zr55   O58       0.84088  1_545   S
    N29    O58       1.58901      .   S
    Zr55   O59       0.92008  1_545   S
    N3     O59       1.72563  1_554   S
    Zr60   O61       1.58228      .   S
    N15    O61       2.08782      .   S
    Zr60   O62       1.57945      .   S
    N6     O62       2.07084      .   S
    Zr60   O63       1.59088  1_565   S
    N14    O63       2.05971      .   S
    Zr60   O64       1.51760      .   S
    N24    O64       1.96176      .   S
    Zr65   O66       1.53850      .   S
    N2     O66       2.09126      .   S
    Zr65   O67       1.59693      .   S
    N29    O67       2.10171      .   S
    Zr65   O68       1.58860      .   S
    N27    O68       2.07461      .   S
    Zr69   O70       1.58861      .   S
    N13    O70       2.07462      .   S
    Zr69   O71       1.53850      .   S
    N25    O71       2.09127      .   S
    Zr69   O72       1.59693      .   S
    N10    O72       2.10170      .   S
    Zr73   O74       0.96508      .   S
    N15    O74       1.79670      .   S
    Zr73   O75       0.98224      .   S
    N22    O75       1.83227      .   S
    Zr73   O76       0.95186      .   S
    N17    O76       1.76660      .   S
    Zr73   O77       0.96384      .   S
    N11    O77       1.79743      .   S
    Zr78   O79       1.59927      .   S
    N28    O79       2.10625  1_455   S
    Zr78   O80       1.58633      .   S
    N5     O80       2.07174      .   S
    Zr78   O81       1.56602      .   S
    N18    O81       2.03745      .   S
    Zr78   O82       1.51699      .   S
    N19    O82       1.98954      .   S
    Zr83   O84       0.88209      .   S
    N2     O84       1.69093  1_556   S
    Zr83   O85       0.96537  1_565   S
    N28    O85       1.79731      .   S
    Zr83   O86       0.96373      .   S
    N6     O86       1.79703      .   S
    Zr87   O88       0.95195      .   S
    N16    O88       1.76681      .   S
    Zr87   O89       0.96381      .   S
    N13    O89       1.79737      .   S
    Zr87   O90       0.96513      .   S
    N12    O90       1.79674      .   S
    Zr87   O91       0.98221      .   S
    N14    O91       1.83227      .   S
    Zr92   O93       0.88216      .   S
    N25    O93       1.69105  1_556   S
    Zr92   O94       0.96375      .   S
    N20    O94       1.79706      .   S
    Zr92   O95       0.96537      .   S
    N0     O95       1.79731      .   S
    Zr96   O97       0.98221      .   S
    N4     O97       1.83227      .   S
    Zr96   O98       0.95195      .   S
    N24    O98       1.76681      .   S
    Zr96   O99       0.96381      .   S
    N27    O99       1.79737      .   S
    Zr96   O100      0.96513      .   S
    N23    O100      1.79673      .   S
    Zr101  O102      0.96506      .   S
    N10    O102      1.79651      .   S
    Zr101  O103      0.98232      .   S
    N18    O103      1.83239  1_554   S
    Zr101  O104      0.95181      .   S
    N8     O104      1.76648  1_554   S
    Zr101  O105      0.96360      .   S
    N7     O105      1.79683      .   S
