# CIF file generated by openbabel 2.4.90, see http://openbabel.sf.net
data_I
_chemical_name_common ''
_cell_length_a 12.316
_cell_length_b 16.202
_cell_length_c 17.134
_cell_angle_alpha 89.853
_cell_angle_beta 89.941
_cell_angle_gamma 90.059
_space_group_name_H-M_alt 'P 1'
_space_group_name_Hall 'P 1'
loop_
    _symmetry_equiv_pos_as_xyz
    x,y,z
loop_
    _atom_site_label
    _atom_site_type_symbol
    _atom_site_fract_x
    _atom_site_fract_y
    _atom_site_fract_z
    _atom_site_occupancy
    N0      N    0.10566   0.59615   0.03779   1.000
    N1      N    0.91017   0.29500   0.56481   1.000
    N2      N    0.20158   0.83907   0.96141   1.000
    N3      N    0.90908   0.95488   0.06412   1.000
    N4      N    0.41050   0.70598   0.43562   1.000
    N5      N    0.87093   0.17923   0.33149   1.000
    N6      N    0.40908   0.04432   0.00000   1.000
    N7      N    0.37091   0.92953   0.16894   1.000
    N8      N    0.87034   0.57164   0.83092   1.000
    N9      N    0.40908   0.54433   0.00000   1.000
    N10     N    0.70124   0.65979   0.05531   1.000
    N11     N    0.70215   0.09002   0.55570   1.000
    N12     N    0.60580   0.40328   0.96195   1.000
    N13     N    0.87093   0.67923   0.33149   1.000
    N14     N    0.10674   0.15387   0.53810   1.000
    N15     N    0.37115   0.32141   0.66903   1.000
    N16     N    0.41050   0.20598   0.43562   1.000
    N17     N    0.60698   0.84727   0.46215   1.000
    N18     N    0.20278   0.41104   0.44494   1.000
    N19     N    0.70215   0.59002   0.55569   1.000
    N20     N    0.90908   0.45487   0.06413   1.000
    N21     N    0.70125   0.15979   0.05530   1.000
    N22     N    0.37089   0.42952   0.16894   1.000
    N23     N    0.87035   0.07163   0.83091   1.000
    N24     N    0.91018   0.79501   0.56481   1.000
    N25     N    0.10675   0.65388   0.53810   1.000
    N26     N    0.20279   0.91105   0.44495   1.000
    N27     N    0.20157   0.33906   0.96141   1.000
    N28     N    0.60698   0.34727   0.46215   1.000
    N29     N    0.37116   0.82141   0.66903   1.000
    N30     N    0.10567   0.09614   0.03779   1.000
    N31     N    0.60581   0.90330   0.96195   1.000
    Zr32    Zr   0.75754   0.22112   0.46470   1.000
    O33     O    0.81126   0.24685   0.49931   1.000
    O34     O    0.70518   0.26534   0.46259   1.000
    O35     O    0.73588   0.17537   0.49602   1.000
    O36     O    0.79591   0.20645   0.41769   1.000
    Zr37    Zr   0.93188   0.74863   0.13514   1.000
    O38     O    0.99919   0.68704   0.08071   1.000
    O39     O    0.92127   0.70854   0.21937   1.000
    O40     O    0.82040   0.72047   0.10860   1.000
    O41     O    0.93763   0.84254   0.11367   1.000
    Zr42    Zr   0.93277   0.50101   0.63526   1.000
    O43     O    0.00022   0.56278   0.58090   1.000
    O44     O    0.93863   0.40719   0.61405   1.000
    O45     O    0.82130   0.52913   0.60878   1.000
    O46     O    0.92156   0.54158   0.71917   1.000
    Zr47    Zr   0.93277   0.00101   0.63526   1.000
    O48     O    0.00021   0.06277   0.58089   1.000
    O49     O    0.93863   0.90719   0.61405   1.000
    O50     O    0.82129   0.02912   0.60878   1.000
    O51     O    0.92157   0.04158   0.71917   1.000
    Zr52    Zr   0.43342   0.50021   0.36478   1.000
    O53     O    0.42224   0.45971   0.28072   1.000
    O54     O    0.43919   0.59396   0.38620   1.000
    O55     O    0.32194   0.47197   0.39150   1.000
    O56     O    0.50063   0.43839   0.41921   1.000
    Zr57    Zr   0.75666   0.00000   0.96410   1.000
    O58     O    0.73499   0.05654   0.99548   1.000
    O59     O    0.79511   0.02585   0.91709   1.000
    O60     O    0.70418   0.96683   0.96211   1.000
    O61     O    0.81030   0.98506   0.99868   1.000
    Zr62    Zr   0.43343   0.99692   0.36479   1.000
    O63     O    0.50063   0.93675   0.41921   1.000
    O64     O    0.42225   0.95808   0.28072   1.000
    O65     O    0.43919   0.09231   0.38620   1.000
    O66     O    0.32194   0.96850   0.39151   1.000
    Zr67    Zr   0.43220   0.75086   0.86521   1.000
    O68     O    0.32072   0.77874   0.89590   1.000
    O69     O    0.49947   0.81238   0.91951   1.000
    O70     O    0.42155   0.79145   0.78107   1.000
    Zr71    Zr   0.43220   0.25086   0.86520   1.000
    O72     O    0.42154   0.29145   0.78106   1.000
    O73     O    0.32071   0.27873   0.89590   1.000
    O74     O    0.49946   0.31237   0.91951   1.000
    Zr75    Zr   0.75755   0.72112   0.46469   1.000
    O76     O    0.70519   0.76535   0.46259   1.000
    O77     O    0.81127   0.74686   0.49931   1.000
    O78     O    0.73589   0.67537   0.49602   1.000
    O79     O    0.79592   0.70646   0.41769   1.000
    Zr80    Zr   0.93189   0.24862   0.13514   1.000
    O81     O    0.99920   0.18703   0.08071   1.000
    O82     O    0.92127   0.20853   0.21937   1.000
    O83     O    0.93763   0.34253   0.11367   1.000
    O84     O    0.82040   0.22046   0.10860   1.000
    Zr85    Zr   0.25658   0.97015   0.03580   1.000
    O86     O    0.23507   0.92437   0.01273   1.000
    O87     O    0.20409   0.01431   0.03771   1.000
    O88     O    0.29526   0.95591   0.08280   1.000
    O89     O    0.31023   0.99597   0.02238   1.000
    Zr90    Zr   0.25788   0.27988   0.53580   1.000
    O91     O    0.23633   0.32566   0.50454   1.000
    O92     O    0.29621   0.29443   0.58281   1.000
    O93     O    0.20530   0.23571   0.53783   1.000
    O94     O    0.31157   0.25413   0.50115   1.000
    Zr95    Zr   0.25657   0.47016   0.03580   1.000
    O96     O    0.23506   0.42437   0.01273   1.000
    O97     O    0.29525   0.45591   0.08280   1.000
    O98     O    0.31022   0.49598   0.02238   1.000
    O99     O    0.20408   0.51432   0.03771   1.000
    Zr100   Zr   0.25789   0.77988   0.53580   1.000
    O101    O    0.31158   0.75414   0.50115   1.000
    O102    O    0.23634   0.82567   0.50454   1.000
    O103    O    0.29622   0.79443   0.58282   1.000
    O104    O    0.20530   0.73572   0.53783   1.000
    Zr105   Zr   0.75665   0.52945   0.96410   1.000
    O106    O    0.70418   0.48523   0.96212   1.000
    O107    O    0.81029   0.50347   0.99868   1.000
    O108    O    0.73498   0.57495   0.99549   1.000
    O109    O    0.79510   0.54426   0.91710   1.000
loop_
    _geom_bond_atom_site_label_1
    _geom_bond_atom_site_label_2
    _geom_bond_distance
    _geom_bond_site_symmetry_2
    _ccdc_geom_bond_type
    Zr32   O33       0.98224      .   S
    N1     O33       1.83227      .   S
    Zr32   O34       0.96509      .   S
    N28    O34       1.79671      .   S
    Zr32   O35       0.95186      .   S
    N11    O35       1.76660      .   S
    Zr32   O36       0.96384      .   S
    N5     O36       1.79744      .   S
    Zr37   O38       1.59926      .   S
    N0     O38       2.10623  1_455   S
    Zr37   O39       1.58633      .   S
    N13    O39       2.07174      .   S
    Zr37   O40       1.51699      .   S
    N10    O40       1.98953      .   S
    Zr37   O41       1.56602      .   S
    N3     O41       2.03746      .   S
    Zr42   O43       1.59713  1_655   S
    N25    O43       2.10387      .   S
    Zr42   O44       1.56547      .   S
    N1     O44       2.03619      .   S
    Zr42   O45       1.51656      .   S
    N19    O45       1.98877      .   S
    Zr42   O46       1.58838      .   S
    N8     O46       2.07460      .   S
    Zr47   O48       1.59711  1_655   S
    N14    O48       2.10383      .   S
    Zr47   O49       1.56537  1_545   S
    N24    O49       2.03610      .   S
    Zr47   O50       1.51656      .   S
    N11    O50       1.98876      .   S
    Zr47   O51       1.58835      .   S
    N23    O51       2.07458      .   S
    Zr52   O53       1.59034      .   S
    N22    O53       2.07702      .   S
    Zr52   O54       1.56507      .   S
    N4     O54       2.03596      .   S
    Zr52   O55       1.51670      .   S
    N18    O55       1.98900      .   S
    Zr52   O56       1.59884      .   S
    N28    O56       2.10643      .   S
    Zr57   O58       1.09649      .   S
    N21    O58       2.00771  1_554   S
    Zr57   O59       1.02247      .   S
    N23    O59       1.89187      .   S
    Zr57   O60       0.84088  1_545   S
    N31    O60       1.58901      .   S
    Zr57   O61       0.92008  1_545   S
    N3     O61       1.72563  1_554   S
    Zr62   O63       1.58228      .   S
    N17    O63       2.08782      .   S
    Zr62   O64       1.57945      .   S
    N7     O64       2.07084      .   S
    Zr62   O65       1.59088  1_565   S
    N16    O65       2.05971      .   S
    Zr62   O66       1.51760      .   S
    N26    O66       1.96176      .   S
    Zr67   O68       1.53850      .   S
    N2     O68       2.09126      .   S
    Zr67   O69       1.59693      .   S
    N31    O69       2.10171      .   S
    Zr67   O70       1.58860      .   S
    N29    O70       2.07461      .   S
    Zr71   O72       1.58861      .   S
    N15    O72       2.07462      .   S
    Zr71   O73       1.53850      .   S
    N27    O73       2.09127      .   S
    Zr71   O74       1.59693      .   S
    N12    O74       2.10170      .   S
    Zr75   O76       0.96508      .   S
    N17    O76       1.79670      .   S
    Zr75   O77       0.98224      .   S
    N24    O77       1.83227      .   S
    Zr75   O78       0.95186      .   S
    N19    O78       1.76660      .   S
    Zr75   O79       0.96384      .   S
    N13    O79       1.79743      .   S
    Zr80   O81       1.59927      .   S
    N30    O81       2.10625  1_455   S
    Zr80   O82       1.58633      .   S
    N5     O82       2.07174      .   S
    Zr80   O83       1.56602      .   S
    N20    O83       2.03745      .   S
    Zr80   O84       1.51699      .   S
    N21    O84       1.98954      .   S
    Zr85   O86       0.88209      .   S
    N2     O86       1.69093  1_556   S
    Zr85   O87       0.96537  1_565   S
    N30    O87       1.79731      .   S
    Zr85   O88       0.96373      .   S
    N7     O88       1.79703      .   S
    Zr85   O89       0.81438      .   S
    N6     O89       1.49610  1_545   S
    Zr90   O91       0.95195      .   S
    N18    O91       1.76681      .   S
    Zr90   O92       0.96381      .   S
    N15    O92       1.79737      .   S
    Zr90   O93       0.96513      .   S
    N14    O93       1.79674      .   S
    Zr90   O94       0.98221      .   S
    N16    O94       1.83227      .   S
    Zr95   O96       0.88216      .   S
    N27    O96       1.69105  1_556   S
    Zr95   O97       0.96375      .   S
    N22    O97       1.79706      .   S
    Zr95   O98       0.81440      .   S
    N9     O98       1.49614      .   S
    Zr95   O99       0.96537      .   S
    N0     O99       1.79731      .   S
    Zr100  O101      0.98221      .   S
    N4     O101      1.83227      .   S
    Zr100  O102      0.95195      .   S
    N26    O102      1.76681      .   S
    Zr100  O103      0.96381      .   S
    N29    O103      1.79737      .   S
    Zr100  O104      0.96513      .   S
    N25    O104      1.79673      .   S
    Zr105  O106      0.96506      .   S
    N12    O106      1.79651      .   S
    Zr105  O107      0.98232      .   S
    N20    O107      1.83239  1_554   S
    Zr105  O108      0.95181      .   S
    N10    O108      1.76648  1_554   S
    Zr105  O109      0.96360      .   S
    N8     O109      1.79683      .   S
