# CIF file generated by openbabel 2.4.90, see http://openbabel.sf.net
data_I
_chemical_name_common ''
_cell_length_a 10.143
_cell_length_b 12.816
_cell_length_c 12.826
_cell_angle_alpha 81.096
_cell_angle_beta 66.763
_cell_angle_gamma 66.789
_space_group_name_H-M_alt 'P 1'
_space_group_name_Hall 'P 1'
loop_
    _symmetry_equiv_pos_as_xyz
    x,y,z
loop_
    _atom_site_label
    _atom_site_type_symbol
    _atom_site_fract_x
    _atom_site_fract_y
    _atom_site_fract_z
    _atom_site_occupancy
    H0      H    0.38470   0.25830   0.38184   1.000
    H1      H    0.47889   0.04970   0.41774   1.000
    H2      H    0.02679   0.74192   0.61503   1.000
    H3      H    0.94751   0.95063   0.57988   1.000
    H4      H    0.64243   0.38325   0.74199   1.000
    H5      H    0.52836   0.41852   0.95069   1.000
    H6      H    0.76801   0.61586   0.25814   1.000
    H7      H    0.89748   0.58019   0.04966   1.000
    H8      H    0.61524   0.74168   0.61818   1.000
    H9      H    0.52106   0.95028   0.58227   1.000
    H10     H    0.97315   0.25806   0.38500   1.000
    H11     H    0.05244   0.04935   0.42013   1.000
    H12     H    0.35751   0.61675   0.25802   1.000
    H13     H    0.47158   0.58145   0.04932   1.000
    H14     H    0.23194   0.38411   0.74187   1.000
    H15     H    0.10248   0.41976   0.95035   1.000
    C16     C    0.31570   0.20863   0.38912   1.000
    C17     C    0.36721   0.09256   0.40958   1.000
    C18     C    0.91468   0.79148   0.60919   1.000
    C19     C    0.87024   0.90759   0.58897   1.000
    C20     C    0.52410   0.38999   0.79156   1.000
    C21     C    0.45971   0.41024   0.90764   1.000
    C22     C    0.70570   0.60946   0.20854   1.000
    C23     C    0.77736   0.58909   0.09248   1.000
    C24     C    0.68426   0.79135   0.61089   1.000
    C25     C    0.63273   0.90742   0.59044   1.000
    C26     C    0.08528   0.20851   0.39082   1.000
    C27     C    0.12971   0.09239   0.41105   1.000
    C28     C    0.47585   0.60998   0.20845   1.000
    C29     C    0.54023   0.58974   0.09237   1.000
    C30     C    0.29426   0.39050   0.79147   1.000
    C31     C    0.22259   0.41088   0.90753   1.000
    C32     C    0.27364   0.03250   0.41997   1.000
    C33     C    0.32735   0.90610   0.43899   1.000
    C34     C    0.72630   0.96748   0.58005   1.000
    C35     C    0.67260   0.09388   0.56102   1.000
    C36     C    0.30641   0.42025   0.96754   1.000
    C37     C    0.23391   0.43930   0.09387   1.000
    C38     C    0.69354   0.57973   0.03247   1.000
    C39     C    0.76604   0.56066   0.90614   1.000
    S40     S    0.75003   0.49993   0.50003   1.000
    S41     S    0.24993   0.50004   0.49998   1.000
    N42     N    0.17726   0.26593   0.37896   1.000
    N43     N    0.82270   0.73404   0.62104   1.000
    N44     N    0.44326   0.37927   0.73415   1.000
    N45     N    0.55669   0.62070   0.26586   1.000
    O46     O    0.45939   0.85510   0.44679   1.000
    O47     O    0.85522   0.55107   0.40887   1.000
    O48     O    0.76004   0.14553   0.55524   1.000
    O49     O    0.81499   0.44877   0.59127   1.000
    O50     O    0.31604   0.44420   0.14548   1.000
    O51     O    0.40604   0.40873   0.44885   1.000
    O52     O    0.90627   0.55200   0.85513   1.000
    O53     O    0.26399   0.59134   0.55121   1.000
    O54     O    0.54054   0.14488   0.55324   1.000
    O55     O    0.14474   0.44890   0.59113   1.000
    O56     O    0.23991   0.85445   0.44477   1.000
    O57     O    0.18497   0.55120   0.40873   1.000
    O58     O    0.68391   0.55578   0.85452   1.000
    O59     O    0.59392   0.59125   0.55115   1.000
    O60     O    0.09368   0.44797   0.14488   1.000
    O61     O    0.73596   0.40864   0.44880   1.000
loop_
    _geom_bond_atom_site_label_1
    _geom_bond_atom_site_label_2
    _geom_bond_distance
    _geom_bond_site_symmetry_2
    _ccdc_geom_bond_type
    C38    C29       1.39829      .   S
    C38    C23       1.39821      .   S
    C38    C39       1.50551  1_554   S
    H13    C29       1.08676      .   S
    H7     C23       1.08673      .   S
    C29    C28       1.38892      .   S
    C23    C22       1.38892      .   S
    C37    O60       1.27556      .   S
    C37    O50       1.27491      .   S
    C37    C36       1.50551  1_554   S
    C28    H12       1.08876      .   S
    C28    N45       1.35278      .   S
    C22    H6        1.08869      .   S
    C22    N45       1.35274      .   S
    N42    C16       1.35275      .   S
    N42    C26       1.35277      .   S
    H0     C16       1.08866      .   S
    H10    C26       1.08873  1_655   S
    C16    C17       1.38895      .   S
    C26    C27       1.38888      .   S
    O57    S41       1.50471      .   S
    O47    S40       1.50483      .   S
    C17    H1        1.08682      .   S
    C17    C32       1.39827      .   S
    C27    C32       1.39827      .   S
    C27    H11       1.08669      .   S
    C32    C33       1.50576  1_545   S
    C33    O56       1.27514      .   S
    C33    O46       1.27530      .   S
    O61    S40       1.50490      .   S
    O51    S41       1.50481      .   S
    S41    O53       1.50491      .   S
    S41    O55       1.50484      .   S
    S40    O59       1.50481      .   S
    S40    O49       1.50471      .   S
    O54    C35       1.27529      .   S
    O48    C35       1.27513      .   S
    C35    C34       1.50577  1_545   S
    H3     C19       1.08669      .   S
    C34    C19       1.39827      .   S
    C34    C25       1.39825      .   S
    H9     C25       1.08682      .   S
    C19    C18       1.38888      .   S
    C25    C24       1.38896      .   S
    C18    H2        1.08875  1_655   S
    C18    N43       1.35278      .   S
    C24    H8        1.08867      .   S
    C24    N43       1.35273      .   S
    N44    C30       1.35274      .   S
    N44    C20       1.35277      .   S
    H14    C30       1.08869      .   S
    H4     C20       1.08876      .   S
    C30    C31       1.38893      .   S
    C20    C21       1.38892      .   S
    O58    C39       1.27490      .   S
    O52    C39       1.27557      .   S
    C31    H15       1.08674      .   S
    C31    C36       1.39822      .   S
    C21    H5        1.08674      .   S
    C21    C36       1.39829      .   S
