# CIF file generated by openbabel 2.4.90, see http://openbabel.sf.net
data_I
_chemical_name_common ''
_cell_length_a 10.143
_cell_length_b 12.816
_cell_length_c 12.826
_cell_angle_alpha 81.096
_cell_angle_beta 66.763
_cell_angle_gamma 66.789
_space_group_name_H-M_alt 'P 1'
_space_group_name_Hall 'P 1'
loop_
    _symmetry_equiv_pos_as_xyz
    x,y,z
loop_
    _atom_site_label
    _atom_site_type_symbol
    _atom_site_fract_x
    _atom_site_fract_y
    _atom_site_fract_z
    _atom_site_occupancy
    N0      N    0.74882   0.91294   0.58965   1.000
    N1      N    0.25113   0.08705   0.41037   1.000
    N2      N    0.66155   0.58934   0.08701   1.000
    N3      N    0.33840   0.41063   0.91300   1.000
    N4      N    0.75003   0.49993   0.50002   1.000
    N5      N    0.24993   0.50004   0.49998   1.000
    Zr6     Zr   0.11300   0.45106   0.32243   1.000
    O7      O    0.99004   0.47578   0.37763   1.000
    O8      O    0.15557   0.33691   0.35148   1.000
    O9      O    0.15623   0.47582   0.37760   1.000
    Zr10    Zr   0.43612   0.67741   0.45097   1.000
    O11     O    0.50755   0.64831   0.33684   1.000
    O12     O    0.53432   0.62227   0.47575   1.000
    O13     O    0.36806   0.62231   0.47575   1.000
    Zr14    Zr   0.88695   0.54892   0.67758   1.000
    O15     O    0.84373   0.52416   0.62240   1.000
    O16     O    0.00992   0.52420   0.62237   1.000
    O17     O    0.84439   0.66307   0.64853   1.000
    Zr18    Zr   0.56383   0.32257   0.54904   1.000
    O19     O    0.49240   0.35167   0.66317   1.000
    O20     O    0.46563   0.37771   0.52425   1.000
    O21     O    0.63190   0.37767   0.52426   1.000
    O22     O    0.37906   0.80199   0.44017   1.000
    O23     O    0.62089   0.19799   0.55984   1.000
    O24     O    0.81912   0.55965   0.80209   1.000
    O25     O    0.18083   0.44033   0.19792   1.000
loop_
    _geom_bond_atom_site_label_1
    _geom_bond_atom_site_label_2
    _geom_bond_distance
    _geom_bond_site_symmetry_2
    _ccdc_geom_bond_type
    Zr6    O7        1.10384  1_455   S
    N4     O7        2.24219      .   S
    Zr6    O8        1.38764      .   S
    N1     O8        3.02440      .   S
    Zr6    O9        1.10357      .   S
    N5     O9        2.24138      .   S
    Zr10   O11       1.38779      .   S
    N2     O11       3.02464      .   S
    Zr10   O12       1.10367      .   S
    N4     O12       2.24152      .   S
    Zr10   O13       1.10362      .   S
    N5     O13       2.24119      .   S
    Zr14   O15       1.10357      .   S
    N4     O15       2.24139      .   S
    Zr14   O16       1.10386  1_655   S
    N5     O16       2.24220      .   S
    Zr14   O17       1.38765      .   S
    N0     O17       3.02441      .   S
    Zr18   O19       1.38779      .   S
    N3     O19       3.02463      .   S
    Zr18   O20       1.10366      .   S
    N5     O20       2.24150      .   S
    Zr18   O21       1.10363      .   S
    N4     O21       2.24121      .   S
    N1     O22       3.37617  1_545   S
    Zr10   O22       1.47299      .   S
    Zr18   O23       1.47299      .   S
    N0     O23       3.37618  1_565   S
    N2     O24       3.37578  1_554   S
    Zr14   O24       1.47280      .   S
    N3     O25       3.37575  1_556   S
    Zr6    O25       1.47278      .   S
