# CIF file generated by openbabel 2.4.90, see http://openbabel.sf.net
data_I
_chemical_name_common ''
_cell_length_a 10.143
_cell_length_b 12.816
_cell_length_c 12.826
_cell_angle_alpha 81.096
_cell_angle_beta 66.763
_cell_angle_gamma 66.789
_space_group_name_H-M_alt 'P 1'
_space_group_name_Hall 'P 1'
loop_
    _symmetry_equiv_pos_as_xyz
    x,y,z
loop_
    _atom_site_label
    _atom_site_type_symbol
    _atom_site_fract_x
    _atom_site_fract_y
    _atom_site_fract_z
    _atom_site_occupancy
    Zr0     Zr   0.11300   0.45106   0.32243   1.000
    Zr1     Zr   0.88695   0.54892   0.67758   1.000
    Zr2     Zr   0.56383   0.32257   0.54904   1.000
    Zr3     Zr   0.43612   0.67741   0.45097   1.000
    N4      N    0.74882   0.91294   0.58965   1.000
    O5      O    0.80182   0.77721   0.61948   1.000
    O6      O    0.70538   0.07349   0.57089   1.000
    O7      O    0.65050   0.07333   0.57039   1.000
    N8      N    0.25113   0.08705   0.41037   1.000
    O9      O    0.19813   0.22277   0.38053   1.000
    O10     O    0.34944   0.92665   0.42962   1.000
    O11     O    0.29457   0.92649   0.42912   1.000
    N12     N    0.66155   0.58934   0.08701   1.000
    O13     O    0.57898   0.61920   0.22271   1.000
    O14     O    0.77908   0.56990   0.92668   1.000
    O15     O    0.72349   0.57084   0.92653   1.000
    N16     N    0.33840   0.41063   0.91300   1.000
    O17     O    0.42097   0.38078   0.77730   1.000
    O18     O    0.27646   0.42913   0.07348   1.000
    O19     O    0.22087   0.43007   0.07333   1.000
    N20     N    0.75003   0.49993   0.50002   1.000
    O21     O    0.86707   0.50050   0.43284   1.000
    O22     O    0.80050   0.49939   0.56722   1.000
    O23     O    0.63252   0.56713   0.50054   1.000
    O24     O    0.69996   0.43277   0.49947   1.000
    N25     N    0.24993   0.50004   0.49998   1.000
    O26     O    0.36744   0.43285   0.49946   1.000
    O27     O    0.30000   0.56721   0.50053   1.000
    O28     O    0.13289   0.49948   0.56717   1.000
    O29     O    0.19946   0.50059   0.43278   1.000
loop_
    _geom_bond_atom_site_label_1
    _geom_bond_atom_site_label_2
    _geom_bond_distance
    _geom_bond_site_symmetry_2
    _ccdc_geom_bond_type
    N4     O5        1.63717      .   S
    Zr1    O5        2.77529      .   S
    N4     O6        1.92401  1_565   S
    Zr2    O6        2.95934      .   S
    N4     O7        1.92414  1_565   S
    Zr2    O7        2.95916      .   S
    N8     O9        1.63717      .   S
    Zr0    O9        2.77528      .   S
    N8     O10       1.92414  1_545   S
    Zr3    O10       2.95916      .   S
    N8     O11       1.92400  1_545   S
    Zr3    O11       2.95934      .   S
    N12    O13       1.63726      .   S
    Zr3    O13       2.77558      .   S
    N12    O14       1.92404  1_554   S
    Zr1    O14       2.95857      .   S
    N12    O15       1.92373  1_554   S
    Zr1    O15       2.95917      .   S
    N16    O17       1.63726      .   S
    Zr2    O17       2.77557      .   S
    N16    O18       1.92372  1_556   S
    Zr0    O18       2.95914      .   S
    N16    O19       1.92402  1_556   S
    Zr0    O19       2.95855      .   S
    N20    O21       1.16173      .   S
    Zr0    O21       2.20769  1_455   S
    N20    O22       1.16128      .   S
    Zr1    O22       2.20715      .   S
    N20    O23       1.16132      .   S
    Zr3    O23       2.20734      .   S
    N20    O24       1.16111      .   S
    Zr2    O24       2.20726      .   S
    N25    O26       1.16131      .   S
    Zr2    O26       2.20732      .   S
    N25    O27       1.16110      .   S
    Zr3    O27       2.20724      .   S
    N25    O28       1.16174      .   S
    Zr1    O28       2.20771  1_655   S
    N25    O29       1.16128      .   S
    Zr0    O29       2.20713      .   S
