# CIF file generated by openbabel 2.4.90, see http://openbabel.sf.net
data_I
_chemical_name_common ''
_cell_length_a 6.315
_cell_length_b 8.7495
_cell_length_c 9.775
_cell_angle_alpha 64.711
_cell_angle_beta 84.48
_cell_angle_gamma 83.627
_space_group_name_H-M_alt 'P 1'
_space_group_name_Hall 'P 1'
loop_
    _symmetry_equiv_pos_as_xyz
    x,y,z
loop_
    _atom_site_label
    _atom_site_type_symbol
    _atom_site_fract_x
    _atom_site_fract_y
    _atom_site_fract_z
    _atom_site_occupancy
    N0      N    0.25398   0.13385   0.35678   1.000
    N1      N    0.26421   0.72015   0.18856   1.000
    N2      N    0.74596   0.86602   0.64336   1.000
    N3      N    0.73580   0.27983   0.81157   1.000
    Zr4     Zr   0.78633   0.36134   0.43386   1.000
    O5      O    0.61668   0.48461   0.35778   1.000
    O6      O    0.76931   0.19752   0.51802   1.000
    O7      O    0.61980   0.28346   0.40198   1.000
    O8      O    0.93715   0.48589   0.35723   1.000
    Zr9     Zr   0.28054   0.02508   0.80109   1.000
    O10     O    0.11319   0.96401   0.74829   1.000
    O11     O    0.26870   0.07852   0.64979   1.000
    Zr12    Zr   0.21363   0.63859   0.56625   1.000
    O13     O    0.38015   0.71644   0.59814   1.000
    O14     O    0.06283   0.51405   0.64287   1.000
    O15     O    0.38330   0.51529   0.64234   1.000
    O16     O    0.23065   0.80237   0.48210   1.000
    Zr17    Zr   0.71954   0.97501   0.19902   1.000
    O18     O    0.73132   0.92148   0.35033   1.000
    O19     O    0.88684   0.03603   0.25181   1.000
    O20     O    0.23148   0.65853   0.44025   1.000
    O21     O    0.27544   0.92174   0.93092   1.000
    O22     O    0.57588   0.87905   0.19545   1.000
    O23     O    0.89661   0.88019   0.19491   1.000
    O24     O    0.76850   0.34139   0.55986   1.000
    O25     O    0.42418   0.12099   0.80468   1.000
    O26     O    0.10345   0.11985   0.80519   1.000
    O27     O    0.72462   0.07832   0.06920   1.000
    O28     O    0.94420   0.28309   0.40942   1.000
    O29     O    0.05575   0.71684   0.59068   1.000
    O30     O    0.43758   0.97268   0.74623   1.000
    O31     O    0.56246   0.02732   0.25390   1.000
loop_
    _geom_bond_atom_site_label_1
    _geom_bond_atom_site_label_2
    _geom_bond_distance
    _geom_bond_site_symmetry_2
    _ccdc_geom_bond_type
    Zr4    O5        1.44069      .   S
    N1     O5        2.95210      .   S
    Zr4    O6        1.32383      .   S
    N2     O6        2.63809  1_565   S
    Zr4    O7        1.43900      .   S
    N0     O7        2.93385      .   S
    Zr4    O8        1.43229      .   S
    N1     O8        2.92965  1_455   S
    Zr9    O10       1.46100  1_545   S
    N2     O10       2.96909  1_655   S
    Zr9    O11       1.35436      .   S
    N0     O11       2.70240      .   S
    Zr12   O13       1.43891      .   S
    N2     O13       2.93370      .   S
    Zr12   O14       1.43213      .   S
    N3     O14       2.92938  1_655   S
    Zr12   O15       1.44085      .   S
    N3     O15       2.95211      .   S
    Zr12   O16       1.32358      .   S
    N0     O16       2.63790  1_545   S
    Zr17   O18       1.35431      .   S
    N2     O18       2.70216      .   S
    Zr17   O19       1.46049  1_565   S
    N0     O19       2.96801  1_455   S
    N1     O20       2.27593      .   S
    Zr12   O20       1.16367      .   S
    N1     O21       2.37843  1_554   S
    Zr9    O21       1.20309  1_545   S
    N1     O22       2.55425      .   S
    Zr17   O22       1.31509      .   S
    N1     O23       2.58428  1_455   S
    Zr17   O23       1.32442      .   S
    N3     O24       2.27621      .   S
    Zr4    O24       1.16371      .   S
    N3     O25       2.55366      .   S
    Zr9    O25       1.31475      .   S
    N3     O26       2.58426  1_655   S
    Zr9    O26       1.32431      .   S
    N3     O27       2.37815  1_556   S
    Zr17   O27       1.20294  1_565   S
    Zr4    O28       1.20918      .   S
    N0     O28       2.36857  1_455   S
    Zr12   O29       1.20921      .   S
    N2     O29       2.36846  1_655   S
    N2     O30       2.38665      .   S
    Zr9    O30       1.21987  1_545   S
    Zr17   O31       1.21980  1_565   S
    N0     O31       2.38656      .   S
