# CIF file generated by openbabel 2.4.90, see http://openbabel.sf.net
data_I
_chemical_name_common ''
_cell_length_a 6.315
_cell_length_b 8.7495
_cell_length_c 9.775
_cell_angle_alpha 64.711
_cell_angle_beta 84.48
_cell_angle_gamma 83.627
_space_group_name_H-M_alt 'P 1'
_space_group_name_Hall 'P 1'
loop_
    _symmetry_equiv_pos_as_xyz
    x,y,z
loop_
    _atom_site_label
    _atom_site_type_symbol
    _atom_site_fract_x
    _atom_site_fract_y
    _atom_site_fract_z
    _atom_site_occupancy
    Zr0     Zr   0.71954   0.97501   0.19902   1.000
    Zr1     Zr   0.78633   0.36134   0.43386   1.000
    Zr2     Zr   0.28054   0.02508   0.80109   1.000
    Zr3     Zr   0.21363   0.63859   0.56625   1.000
    N4      N    0.25398   0.13385   0.35678   1.000
    O5      O    0.05415   0.09706   0.30460   1.000
    O6      O    0.07084   0.19364   0.36330   1.000
    O7      O    0.37415   0.05026   0.30614   1.000
    O8      O    0.24767   0.96616   0.39795   1.000
    O9      O    0.13331   0.21603   0.40667   1.000
    O10     O    0.25686   0.13196   0.49848   1.000
    O11     O    0.43658   0.10900   0.31140   1.000
    O12     O    0.45328   0.20559   0.37010   1.000
    N13     N    0.26421   0.72015   0.18856   1.000
    O14     O    0.08796   0.61044   0.28060   1.000
    O15     O    0.07127   0.76385   0.22189   1.000
    O16     O    0.19479   0.67975   0.31370   1.000
    O17     O    0.21634   0.81941   0.06023   1.000
    O18     O    0.07610   0.80690   0.15971   1.000
    O19     O    0.44703   0.60788   0.28170   1.000
    O20     O    0.43033   0.76130   0.22299   1.000
    O21     O    0.30385   0.67719   0.31480   1.000
    O22     O    0.32434   0.81740   0.06128   1.000
    O23     O    0.43409   0.80489   0.16077   1.000
    N24     N    0.74596   0.86602   0.64336   1.000
    O25     O    0.94585   0.90295   0.69549   1.000
    O26     O    0.92912   0.80632   0.63678   1.000
    O27     O    0.75230   0.03370   0.60219   1.000
    O28     O    0.62585   0.94964   0.69400   1.000
    O29     O    0.74310   0.86795   0.50165   1.000
    O30     O    0.86662   0.78385   0.59345   1.000
    O31     O    0.56340   0.89091   0.68875   1.000
    O32     O    0.54667   0.79429   0.63004   1.000
    N33     N    0.73580   0.27983   0.81157   1.000
    O34     O    0.91203   0.38952   0.71950   1.000
    O35     O    0.80520   0.32021   0.68640   1.000
    O36     O    0.92876   0.23614   0.77821   1.000
    O37     O    0.78370   0.18059   0.93988   1.000
    O38     O    0.92395   0.19311   0.84039   1.000
    O39     O    0.55296   0.39200   0.71842   1.000
    O40     O    0.69613   0.32269   0.68533   1.000
    O41     O    0.56968   0.23862   0.77713   1.000
    O42     O    0.67570   0.18267   0.93888   1.000
    O43     O    0.56595   0.19519   0.83940   1.000
loop_
    _geom_bond_atom_site_label_1
    _geom_bond_atom_site_label_2
    _geom_bond_distance
    _geom_bond_site_symmetry_2
    _ccdc_geom_bond_type
    N4     O5        1.52010      .   S
    Zr0    O5        2.92098  1_665   S
    N4     O6        1.22284      .   S
    Zr1    O6        2.42848  1_655   S
    N4     O7        1.21222      .   S
    Zr0    O7        2.47352  1_565   S
    N4     O8        1.34968  1_545   S
    Zr3    O8        2.64716      .   S
    N4     O9        1.20087      .   S
    Zr1    O9        2.45896  1_655   S
    N4     O10       1.38004      .   S
    Zr2    O10       2.70872      .   S
    N4     O11       1.22556      .   S
    Zr0    O11       2.45597  1_565   S
    N4     O12       1.50719      .   S
    Zr1    O12       2.87801      .   S
    N13    O14       1.50876      .   S
    Zr1    O14       2.86458  1_655   S
    N13    O15       1.28984      .   S
    Zr0    O15       2.68854  1_655   S
    N13    O16       1.17272      .   S
    Zr3    O16       2.35064      .   S
    N13    O17       1.22606      .   S
    Zr2    O17       2.42672  1_546   S
    N13    O18       1.32223      .   S
    Zr0    O18       2.63860  1_655   S
    N13    O19       1.52084      .   S
    Zr1    O19       2.88138      .   S
    N13    O20       1.26440      .   S
    Zr0    O20       2.68113      .   S
    N13    O21       1.17002      .   S
    Zr3    O21       2.35456      .   S
    N13    O22       1.22168      .   S
    Zr2    O22       2.43361  1_546   S
    N13    O23       1.31255      .   S
    Zr0    O23       2.60880      .   S
    N24    O25       1.52063      .   S
    Zr2    O25       2.92200  1_445   S
    N24    O26       1.22274      .   S
    Zr3    O26       2.42857  1_455   S
    N24    O27       1.34963  1_565   S
    Zr1    O27       2.64765      .   S
    N24    O28       1.21226      .   S
    Zr2    O28       2.47355  1_545   S
    N24    O29       1.37991      .   S
    Zr0    O29       2.70861      .   S
    N24    O30       1.20080      .   S
    Zr3    O30       2.45900  1_455   S
    N24    O31       1.22553      .   S
    Zr2    O31       2.45623  1_545   S
    N24    O32       1.50714      .   S
    Zr3    O32       2.87783      .   S
    N33    O34       1.50867      .   S
    Zr3    O34       2.86427  1_455   S
    N33    O35       1.17294      .   S
    Zr1    O35       2.35070      .   S
    N33    O36       1.28989      .   S
    Zr2    O36       2.68837  1_455   S
    N33    O37       1.22587      .   S
    Zr0    O37       2.42651  1_564   S
    N33    O38       1.32228      .   S
    Zr2    O38       2.63836  1_455   S
    N33    O39       1.52075      .   S
    Zr3    O39       2.88171      .   S
    N33    O40       1.17020      .   S
    Zr1    O40       2.35465      .   S
    N33    O41       1.26462      .   S
    Zr2    O41       2.67980      .   S
    N33    O42       1.22162      .   S
    Zr0    O42       2.43322  1_564   S
    N33    O43       1.31188      .   S
    Zr2    O43       2.60876      .   S
