# CIF file generated by openbabel 2.4.90, see http://openbabel.sf.net
data_I
_chemical_name_common ''
_cell_length_a 6.315
_cell_length_b 8.7495
_cell_length_c 9.775
_cell_angle_alpha 64.711
_cell_angle_beta 84.48
_cell_angle_gamma 83.627
_space_group_name_H-M_alt 'P 1'
_space_group_name_Hall 'P 1'
loop_
    _symmetry_equiv_pos_as_xyz
    x,y,z
loop_
    _atom_site_label
    _atom_site_type_symbol
    _atom_site_fract_x
    _atom_site_fract_y
    _atom_site_fract_z
    _atom_site_occupancy
    N0      N    0.25398   0.13385   0.35678   1.000
    N1      N    0.26421   0.72015   0.18856   1.000
    N2      N    0.74596   0.86602   0.64336   1.000
    N3      N    0.73580   0.27983   0.81157   1.000
    Zr4     Zr   0.78633   0.36134   0.43386   1.000
    O5      O    0.79577   0.34077   0.56013   1.000
    O6      O    0.61668   0.48461   0.35778   1.000
    O7      O    0.76931   0.19752   0.51802   1.000
    O8      O    0.74123   0.34201   0.55959   1.000
    O9      O    0.61980   0.28346   0.40198   1.000
    O10     O    0.95982   0.28868   0.42027   1.000
    O11     O    0.92858   0.27749   0.39858   1.000
    O12     O    0.93715   0.48589   0.35723   1.000
    Zr13    Zr   0.28054   0.02508   0.80109   1.000
    O14     O    0.10224   0.10909   0.82074   1.000
    O15     O    0.10465   0.13061   0.78965   1.000
    O16     O    0.42324   0.11013   0.82024   1.000
    O17     O    0.30244   0.92124   0.93119   1.000
    O18     O    0.24844   0.92225   0.93066   1.000
    O19     O    0.45319   0.98736   0.74754   1.000
    O20     O    0.42197   0.95799   0.74492   1.000
    O21     O    0.11319   0.96401   0.74829   1.000
    O22     O    0.42511   0.13185   0.78911   1.000
    O23     O    0.26870   0.07852   0.64979   1.000
    Zr24    Zr   0.21363   0.63859   0.56625   1.000
    O25     O    0.20421   0.65917   0.43997   1.000
    O26     O    0.04013   0.71122   0.57985   1.000
    O27     O    0.38015   0.71644   0.59814   1.000
    O28     O    0.06283   0.51405   0.64287   1.000
    O29     O    0.07138   0.72246   0.60151   1.000
    O30     O    0.38330   0.51529   0.64234   1.000
    O31     O    0.23065   0.80237   0.48210   1.000
    O32     O    0.25874   0.65789   0.44052   1.000
    Zr33    Zr   0.71954   0.97501   0.19902   1.000
    O34     O    0.75162   0.07780   0.06945   1.000
    O35     O    0.69762   0.07884   0.06895   1.000
    O36     O    0.89541   0.86943   0.21046   1.000
    O37     O    0.89782   0.89095   0.17937   1.000
    O38     O    0.57494   0.86815   0.21101   1.000
    O39     O    0.57682   0.88995   0.17990   1.000
    O40     O    0.73132   0.92148   0.35033   1.000
    O41     O    0.88684   0.03603   0.25181   1.000
    O42     O    0.57806   0.04201   0.25521   1.000
    O43     O    0.54685   0.01264   0.25258   1.000
loop_
    _geom_bond_atom_site_label_1
    _geom_bond_atom_site_label_2
    _geom_bond_distance
    _geom_bond_site_symmetry_2
    _ccdc_geom_bond_type
    Zr4    O5        1.17535      .   S
    N3     O5        2.28355      .   S
    Zr4    O6        1.44069      .   S
    N1     O6        2.95210      .   S
    Zr4    O7        1.32383      .   S
    N2     O7        2.63809  1_565   S
    Zr4    O8        1.17733      .   S
    N3     O8        2.28183      .   S
    Zr4    O9        1.43900      .   S
    N0     O9        2.93385      .   S
    Zr4    O10       1.22948      .   S
    N0     O10       2.36835  1_455   S
    Zr4    O11       1.21424      .   S
    N0     O11       2.38179  1_455   S
    Zr4    O12       1.43229      .   S
    N1     O12       2.92965  1_455   S
    Zr13   O14       1.31918      .   S
    N3     O14       2.59857  1_655   S
    Zr13   O15       1.34419      .   S
    N3     O15       2.57753  1_655   S
    Zr13   O16       1.30438      .   S
    N3     O16       2.57262      .   S
    Zr13   O17       1.21681  1_545   S
    N1     O17       2.38308  1_554   S
    Zr13   O18       1.21336  1_545   S
    N1     O18       2.38596  1_554   S
    Zr13   O19       1.23678  1_545   S
    N2     O19       2.38918      .   S
    Zr13   O20       1.22812  1_545   S
    N2     O20       2.39702      .   S
    Zr13   O21       1.46100  1_545   S
    N2     O21       2.96909  1_655   S
    Zr13   O22       1.33990      .   S
    N3     O22       2.54236      .   S
    Zr13   O23       1.35436      .   S
    N0     O23       2.70240      .   S
    Zr24   O25       1.17532      .   S
    N1     O25       2.28327      .   S
    Zr24   O26       1.22950      .   S
    N2     O26       2.36825  1_655   S
    Zr24   O27       1.43891      .   S
    N2     O27       2.93370      .   S
    Zr24   O28       1.43213      .   S
    N3     O28       2.92938  1_655   S
    Zr24   O29       1.21429      .   S
    N2     O29       2.38168  1_655   S
    Zr24   O30       1.44085      .   S
    N3     O30       2.95211      .   S
    Zr24   O31       1.32358      .   S
    N0     O31       2.63790  1_545   S
    Zr24   O32       1.17728      .   S
    N1     O32       2.28156      .   S
    Zr33   O34       1.21325  1_565   S
    N3     O34       2.38564  1_556   S
    Zr33   O35       1.21661  1_565   S
    N3     O35       2.38284  1_556   S
    Zr33   O36       1.34427      .   S
    N1     O36       2.57756  1_455   S
    Zr33   O37       1.31930      .   S
    N1     O37       2.59859  1_455   S
    Zr33   O38       1.34056      .   S
    N1     O38       2.54267      .   S
    Zr33   O39       1.30440      .   S
    N1     O39       2.57349      .   S
    Zr33   O40       1.35431      .   S
    N2     O40       2.70216      .   S
    Zr33   O41       1.46049  1_565   S
    N0     O41       2.96801  1_455   S
    Zr33   O42       1.22798  1_565   S
    N0     O42       2.39697      .   S
    Zr33   O43       1.23676  1_565   S
    N0     O43       2.38905      .   S
