# CIF file generated by openbabel 2.4.90, see http://openbabel.sf.net
data_I
_chemical_name_common ''
_cell_length_a 13.637
_cell_length_b 13.618
_cell_length_c 16.926
_cell_angle_alpha 90.002
_cell_angle_beta 90.005
_cell_angle_gamma 117.781
_space_group_name_H-M_alt 'P 1'
_space_group_name_Hall 'P 1'
loop_
    _symmetry_equiv_pos_as_xyz
    x,y,z
loop_
    _atom_site_label
    _atom_site_type_symbol
    _atom_site_fract_x
    _atom_site_fract_y
    _atom_site_fract_z
    _atom_site_occupancy
    Zr0     Zr   0.08924   0.10963   0.49679   1.000
    Zr1     Zr   0.91017   0.39030   0.99960   1.000
    Zr2     Zr   0.91017   0.89030   0.50039   1.000
    Zr3     Zr   0.08924   0.60965   0.00000   1.000
    O4      O    0.99971   0.99997   0.49859   1.000
    O5      O    0.99971   0.49997   0.99980   1.000
    N6      N    0.50665   0.73786   0.23795   1.000
    O7      O    0.73058   0.55486   0.13952   1.000
    O8      O    0.27459   0.93091   0.34635   1.000
    O9      O    0.69543   0.83157   0.34665   1.000
    O10     O    0.31041   0.65383   0.14063   1.000
    N11     N    0.49260   0.76212   0.73792   1.000
    O12     O    0.26861   0.94485   0.63830   1.000
    O13     O    0.30422   0.66833   0.84741   1.000
    O14     O    0.72445   0.56927   0.84727   1.000
    O15     O    0.68849   0.84613   0.63983   1.000
    N16     N    0.49968   0.50005   0.49970   1.000
    O17     O    0.66766   0.65865   0.50118   1.000
    O18     O    0.33173   0.34138   0.49749   1.000
    N19     N    0.49968   0.00005   0.99995   1.000
    O20     O    0.66766   0.15865   0.99864   1.000
    O21     O    0.33173   0.84140   0.99998   1.000
    N22     N    0.50665   0.23786   0.26203   1.000
    O23     O    0.69543   0.33156   0.15332   1.000
    O24     O    0.31041   0.15383   0.35856   1.000
    O25     O    0.27459   0.43092   0.15283   1.000
    O26     O    0.73058   0.05486   0.36047   1.000
    N27     N    0.49257   0.26210   0.76197   1.000
    O28     O    0.72443   0.06926   0.65268   1.000
    O29     O    0.26860   0.44485   0.86084   1.000
    O30     O    0.30421   0.16831   0.65174   1.000
    O31     O    0.68848   0.34612   0.86012   1.000
loop_
    _geom_bond_atom_site_label_1
    _geom_bond_atom_site_label_2
    _geom_bond_distance
    _geom_bond_site_symmetry_2
    _ccdc_geom_bond_type
    Zr0    O4        1.42205  1_445   S
    Zr2    O4        1.42205      .   S
    Zr1    O5        1.42187      .   S
    Zr3    O5        1.42187  1_454   S
    N6     O7        5.04045      .   S
    Zr1    O7        4.66322  1_556   S
    N6     O8        5.29619      .   S
    Zr0    O8        4.95285  1_545   S
    N6     O9        2.92870      .   S
    Zr2    O9        3.71512      .   S
    N6     O10       2.88606      .   S
    Zr3    O10       3.66483      .   S
    N11    O12       5.04484      .   S
    Zr0    O12       4.67674  1_545   S
    N11    O13       2.93376      .   S
    Zr3    O13       3.70428  1_554   S
    N11    O14       5.29701      .   S
    Zr1    O14       4.97562      .   S
    N11    O15       2.89031      .   S
    Zr2    O15       3.65743      .   S
    N16    O17       2.30239      .   S
    Zr2    O17       3.34120      .   S
    N16    O18       2.30270      .   S
    Zr0    O18       3.34169      .   S
    N19    O20       2.30232      .   S
    Zr1    O20       3.34117      .   S
    N19    O21       2.30234  1_545   S
    Zr3    O21       3.34162  1_554   S
    N22    O23       2.92927      .   S
    Zr1    O23       3.71522  1_556   S
    N22    O24       2.87867      .   S
    Zr0    O24       3.63896      .   S
    N22    O25       5.30079      .   S
    Zr3    O25       4.97378      .   S
    N22    O26       5.04040      .   S
    Zr2    O26       4.66305  1_565   S
    N27    O28       5.29687      .   S
    Zr2    O28       4.97533  1_565   S
    N27    O29       5.04077      .   S
    Zr3    O29       4.65667  1_554   S
    N27    O30       2.94137      .   S
    Zr0    O30       3.73167      .   S
    N27    O31       2.89063      .   S
    Zr1    O31       3.65768      .   S
