# CIF file generated by openbabel 2.4.90, see http://openbabel.sf.net
data_I
_chemical_name_common ''
_cell_length_a 13.637
_cell_length_b 13.618
_cell_length_c 16.926
_cell_angle_alpha 90.002
_cell_angle_beta 90.005
_cell_angle_gamma 117.781
_space_group_name_H-M_alt 'P 1'
_space_group_name_Hall 'P 1'
loop_
    _symmetry_equiv_pos_as_xyz
    x,y,z
loop_
    _atom_site_label
    _atom_site_type_symbol
    _atom_site_fract_x
    _atom_site_fract_y
    _atom_site_fract_z
    _atom_site_occupancy
    C0      C    0.08924   0.10963   0.49679   1.000
    C1      C    0.91017   0.39030   0.99960   1.000
    C2      C    0.91017   0.89030   0.50039   1.000
    C3      C    0.08924   0.60965   0.00000   1.000
    C4      C    0.32406   0.16608   0.51100   1.000
    C5      C    0.50895   0.33062   0.51547   1.000
    C6      C    0.34415   0.53256   0.47891   1.000
    C7      C    0.16710   0.35912   0.47547   1.000
    C8      C    0.94569   0.26635   0.33600   1.000
    C9      C    0.84996   0.31069   0.22549   1.000
    C10     C    0.69894   0.15772   0.15084   1.000
    C11     C    0.74023   0.91831   0.29462   1.000
    C12     C    0.49365   0.88178   0.29103   1.000
    C13     C    0.39048   0.68511   0.33960   1.000
    C14     C    0.54812   0.58282   0.16126   1.000
    C15     C    0.65128   0.77933   0.11298   1.000
    C16     C    0.31046   0.31043   0.32183   1.000
    C17     C    0.12778   0.16903   0.27100   1.000
    C18     C    0.02720   0.22288   0.16931   1.000
    C19     C    0.28870   0.55847   0.17489   1.000
    C20     C    0.67507   0.33415   0.01044   1.000
    C21     C    0.49001   0.16969   0.01274   1.000
    C22     C    0.65546   0.96741   0.98137   1.000
    C23     C    0.83261   0.14077   0.97879   1.000
    C24     C    0.05254   0.23416   0.83739   1.000
    C25     C    0.14683   0.18951   0.72602   1.000
    C26     C    0.29722   0.34228   0.65070   1.000
    C27     C    0.25919   0.58216   0.79630   1.000
    C28     C    0.50698   0.61820   0.78970   1.000
    C29     C    0.61174   0.81492   0.83792   1.000
    C30     C    0.44980   0.91728   0.66286   1.000
    C31     C    0.34502   0.72069   0.61500   1.000
    C32     C    0.69188   0.18943   0.82196   1.000
    C33     C    0.87424   0.33044   0.77042   1.000
    C34     C    0.97320   0.27642   0.66761   1.000
    C35     C    0.71060   0.94133   0.67325   1.000
    C36     C    0.67507   0.83415   0.48953   1.000
    C37     C    0.49000   0.66969   0.48725   1.000
    C38     C    0.65547   0.46740   0.51863   1.000
    C39     C    0.83261   0.64078   0.52120   1.000
    C40     C    0.05252   0.73415   0.66261   1.000
    C41     C    0.14681   0.68951   0.77000   1.000
    C42     C    0.29719   0.84229   0.84926   1.000
    C43     C    0.25915   0.08213   0.70374   1.000
    C44     C    0.50693   0.11813   0.71031   1.000
    C45     C    0.61168   0.31483   0.66212   1.000
    C46     C    0.44980   0.41729   0.83715   1.000
    C47     C    0.34503   0.22073   0.88503   1.000
    C48     C    0.69181   0.68936   0.67801   1.000
    C49     C    0.87419   0.83039   0.72953   1.000
    C50     C    0.97318   0.77642   0.83235   1.000
    C51     C    0.71058   0.44132   0.82675   1.000
    C52     C    0.32407   0.66609   0.98848   1.000
    C53     C    0.50895   0.83063   0.98459   1.000
    C54     C    0.34416   0.03256   0.02107   1.000
    C55     C    0.16710   0.85914   0.02453   1.000
    C56     C    0.94571   0.76637   0.16391   1.000
    C57     C    0.84999   0.81071   0.27450   1.000
    C58     C    0.69895   0.65774   0.34912   1.000
    C59     C    0.74022   0.41832   0.20533   1.000
    C60     C    0.49363   0.38175   0.20889   1.000
    C61     C    0.39044   0.18506   0.16036   1.000
    C62     C    0.54811   0.08284   0.33873   1.000
    C63     C    0.65129   0.27937   0.38699   1.000
    C64     C    0.31042   0.81038   0.17820   1.000
    C65     C    0.12779   0.66899   0.22905   1.000
    C66     C    0.02721   0.72286   0.33072   1.000
    C67     C    0.28868   0.05847   0.32509   1.000
    C68     C    0.33326   0.24943   0.50425   1.000
    C69     C    0.43637   0.34272   0.50660   1.000
    C70     C    0.44527   0.44924   0.49820   1.000
    C71     C    0.34557   0.45398   0.48630   1.000
    C72     C    0.24528   0.35717   0.48443   1.000
    C73     C    0.90484   0.06089   0.38696   1.000
    C74     C    0.84736   0.08985   0.32223   1.000
    C75     C    0.87874   0.20065   0.30313   1.000
    C76     C    0.82536   0.22486   0.24154   1.000
    C77     C    0.74156   0.13971   0.19856   1.000
    C78     C    0.71152   0.02935   0.21740   1.000
    C79     C    0.76313   0.00383   0.27930   1.000
    C80     C    0.57751   0.84064   0.19934   1.000
    C81     C    0.50559   0.81587   0.26361   1.000
    C82     C    0.44877   0.70685   0.29064   1.000
    C83     C    0.46460   0.62379   0.25351   1.000
    C84     C    0.53573   0.64838   0.18895   1.000
    C85     C    0.59289   0.75762   0.16188   1.000
    C86     C    0.31076   0.44236   0.25144   1.000
    C87     C    0.26536   0.33267   0.27830   1.000
    C88     C    0.16353   0.25378   0.24872   1.000
    C89     C    0.10707   0.28342   0.19248   1.000
    C90     C    0.15257   0.39350   0.16632   1.000
    C91     C    0.25501   0.47345   0.19589   1.000
    C92     C    0.09218   0.42800   0.10720   1.000
    C93     C    0.66598   0.25073   0.00388   1.000
    C94     C    0.56279   0.15749   0.00546   1.000
    C95     C    0.55404   0.05091   0.99818   1.000
    C96     C    0.65392   0.04605   0.98777   1.000
    C97     C    0.75426   0.14282   0.98646   1.000
    C98     C    0.09449   0.43948   0.88895   1.000
    C99     C    0.15147   0.41062   0.82376   1.000
    C100    C    0.11943   0.29977   0.80433   1.000
    C101    C    0.17196   0.27539   0.74226   1.000
    C102    C    0.25545   0.36041   0.69902   1.000
    C103    C    0.28627   0.47085   0.71821   1.000
    C104    C    0.23565   0.49656   0.78071   1.000
    C105    C    0.42083   0.65935   0.69972   1.000
    C106    C    0.49445   0.68412   0.76296   1.000
    C107    C    0.55220   0.79320   0.78976   1.000
    C108    C    0.53563   0.87631   0.75342   1.000
    C109    C    0.46278   0.85170   0.68990   1.000
    C110    C    0.40468   0.74241   0.66308   1.000
    C111    C    0.69011   0.05751   0.75070   1.000
    C112    C    0.73624   0.16711   0.77792   1.000
    C113    C    0.83787   0.24579   0.74789   1.000
    C114    C    0.89343   0.21603   0.69100   1.000
    C115    C    0.84720   0.10606   0.66450   1.000
    C116    C    0.74490   0.02631   0.69445   1.000
    C117    C    0.90676   0.07147   0.60471   1.000
    C118    C    0.66598   0.75074   0.49609   1.000
    C119    C    0.56278   0.65750   0.49453   1.000
    C120    C    0.55403   0.55090   0.50183   1.000
    C121    C    0.65392   0.54605   0.51222   1.000
    C122    C    0.75426   0.64282   0.51352   1.000
    C123    C    0.09446   0.93946   0.61106   1.000
    C124    C    0.15144   0.91060   0.67626   1.000
    C125    C    0.11941   0.79976   0.69567   1.000
    C126    C    0.17193   0.77539   0.75776   1.000
    C127    C    0.25543   0.86042   0.80101   1.000
    C128    C    0.28623   0.97084   0.78183   1.000
    C129    C    0.23562   0.99655   0.71932   1.000
    C130    C    0.42081   0.15934   0.80032   1.000
    C131    C    0.49440   0.18407   0.73709   1.000
    C132    C    0.55215   0.29314   0.71027   1.000
    C133    C    0.53559   0.37627   0.74660   1.000
    C134    C    0.46277   0.35169   0.81011   1.000
    C135    C    0.40468   0.24242   0.83696   1.000
    C136    C    0.69006   0.55747   0.74928   1.000
    C137    C    0.73619   0.66706   0.72200   1.000
    C138    C    0.83782   0.74575   0.75207   1.000
    C139    C    0.89340   0.71601   0.80897   1.000
    C140    C    0.84718   0.60606   0.83549   1.000
    C141    C    0.74487   0.52629   0.80554   1.000
    C142    C    0.90676   0.57149   0.89529   1.000
    C143    C    0.33327   0.74944   0.99581   1.000
    C144    C    0.43637   0.84274   0.99343   1.000
    C145    C    0.44527   0.94925   0.00178   1.000
    C146    C    0.34557   0.95400   0.01360   1.000
    C147    C    0.24528   0.85718   0.01558   1.000
    C148    C    0.90483   0.56090   0.11302   1.000
    C149    C    0.84736   0.58987   0.17775   1.000
    C150    C    0.87875   0.70067   0.19686   1.000
    C151    C    0.82538   0.72488   0.25845   1.000
    C152    C    0.74157   0.63973   0.30141   1.000
    C153    C    0.71152   0.52937   0.28256   1.000
    C154    C    0.76312   0.50385   0.22065   1.000
    C155    C    0.57751   0.34065   0.30061   1.000
    C156    C    0.50557   0.31585   0.23633   1.000
    C157    C    0.44874   0.20682   0.20932   1.000
    C158    C    0.46456   0.12377   0.24646   1.000
    C159    C    0.53571   0.14839   0.31102   1.000
    C160    C    0.59289   0.25764   0.33808   1.000
    C161    C    0.31072   0.94234   0.24857   1.000
    C162    C    0.26534   0.83263   0.22168   1.000
    C163    C    0.16352   0.75375   0.25131   1.000
    C164    C    0.10707   0.78341   0.30755   1.000
    C165    C    0.15256   0.89350   0.33368   1.000
    C166    C    0.25499   0.97344   0.30411   1.000
    C167    C    0.09218   0.92802   0.39276   1.000
    C168    C    0.23832   0.25581   0.49375   1.000
    C169    C    0.76110   0.24421   0.99507   1.000
    C170    C    0.76110   0.74422   0.50491   1.000
    C171    C    0.23833   0.75583   0.00000   1.000
    C172    C    0.99582   0.13831   0.41273   1.000
    C173    C    0.85824   0.96024   0.41030   1.000
    C174    C    0.63179   0.94819   0.16959   1.000
    C175    C    0.41252   0.51623   0.28394   1.000
    C176    C    0.13908   0.52996   0.08661   1.000
    C177    C    0.99885   0.35341   0.08258   1.000
    C178    C    0.00244   0.36257   0.91362   1.000
    C179    C    0.14245   0.53944   0.91378   1.000
    C180    C    0.36565   0.55177   0.67000   1.000
    C181    C    0.58857   0.98396   0.78366   1.000
    C182    C    0.85859   0.96996   0.58307   1.000
    C183    C    0.00000   0.14552   0.58057   1.000
    C184    C    0.00241   0.86254   0.58637   1.000
    C185    C    0.14244   0.03940   0.58622   1.000
    C186    C    0.36563   0.05176   0.82999   1.000
    C187    C    0.58851   0.48389   0.71634   1.000
    C188    C    0.85861   0.46997   0.91692   1.000
    C189    C    0.00000   0.64554   0.91942   1.000
    C190    C    0.99581   0.63832   0.08727   1.000
    C191    C    0.85825   0.46024   0.08960   1.000
    C192    C    0.63179   0.44821   0.33036   1.000
    C193    C    0.41246   0.01620   0.21605   1.000
    C194    C    0.13910   0.02996   0.41339   1.000
    C195    C    0.99886   0.85343   0.41742   1.000
    O196    O    0.16379   0.68274   0.00000   1.000
    O197    O    0.11416   0.56981   0.04331   1.000
    O198    O    0.04253   0.62399   0.04364   1.000
    O199    O    0.11585   0.57455   0.95689   1.000
    O200    O    0.04462   0.62760   0.95971   1.000
    O201    O    0.24181   0.80650   0.00779   1.000
    O202    O    0.28580   0.75264   0.99790   1.000
    O203    O    0.39542   0.95162   0.00769   1.000
    O204    O    0.44082   0.89599   0.99760   1.000
    O205    O    0.49965   0.00008   0.99998   1.000
    O206    O    0.61438   0.20411   0.00467   1.000
    O207    O    0.67053   0.29244   0.00716   1.000
    O208    O    0.71354   0.24747   0.99948   1.000
    O209    O    0.52640   0.16359   0.00910   1.000
    O210    O    0.55841   0.10420   0.00182   1.000
    O211    O    0.29543   0.90559   0.01459   1.000
    O212    O    0.34487   0.99328   0.01733   1.000
    O213    O    0.20619   0.85816   0.02005   1.000
    O214    O    0.04551   0.39071   0.09489   1.000
    O215    O    0.95451   0.37185   0.04109   1.000
    O216    O    0.11563   0.47898   0.09690   1.000
    O217    O    0.95032   0.59961   0.10014   1.000
    O218    O    0.88154   0.51057   0.10131   1.000
    O219    O    0.88421   0.42527   0.04460   1.000
    O220    O    0.12238   0.41075   0.13676   1.000
    O221    O    0.62209   0.76847   0.13743   1.000
    O222    O    0.87610   0.57538   0.14538   1.000
    O223    O    0.72025   0.14871   0.17470   1.000
    O224    O    0.41959   0.19594   0.18484   1.000
    O225    O    0.54193   0.61560   0.17510   1.000
    O226    O    0.56431   0.70300   0.17541   1.000
    O227    O    0.58520   0.79913   0.18061   1.000
    O228    O    0.91223   0.73352   0.18038   1.000
    O229    O    0.12982   0.33846   0.17940   1.000
    O230    O    0.20379   0.43348   0.18110   1.000
    O231    O    0.06713   0.25315   0.18089   1.000
    O232    O    0.60465   0.89442   0.18446   1.000
    O233    O    0.67165   0.98877   0.19349   1.000
    O234    O    0.27186   0.51596   0.18539   1.000
    O235    O    0.86306   0.64527   0.18730   1.000
    O236    O    0.80524   0.54686   0.19920   1.000
    O237    O    0.28788   0.82151   0.19994   1.000
    O238    O    0.50016   0.63609   0.22123   1.000
    O239    O    0.13530   0.26860   0.22060   1.000
    O240    O    0.28289   0.45791   0.22366   1.000
    O241    O    0.85207   0.71278   0.22765   1.000
    O242    O    0.72654   0.08453   0.20798   1.000
    O243    O    0.78346   0.18228   0.22005   1.000
    O244    O    0.54155   0.82825   0.23147   1.000
    O245    O    0.75167   0.46108   0.21299   1.000
    O246    O    0.49960   0.34880   0.22261   1.000
    O247    O    0.47715   0.26133   0.22282   1.000
    O248    O    0.45665   0.16529   0.22789   1.000
    O249    O    0.43851   0.06998   0.23126   1.000
    O250    O    0.36159   0.97927   0.23231   1.000
    O251    O    0.73732   0.01659   0.24835   1.000
    O252    O    0.73732   0.51661   0.25160   1.000
    O253    O    0.28803   0.88749   0.23512   1.000
    O254    O    0.21443   0.79319   0.23650   1.000
    O255    O    0.83766   0.26777   0.23351   1.000
    O256    O    0.14565   0.71137   0.24018   1.000
    O257    O    0.54154   0.32825   0.26847   1.000
    O258    O    0.85205   0.21276   0.27233   1.000
    O259    O    0.50014   0.13608   0.27874   1.000
    O260    O    0.28286   0.95789   0.27634   1.000
    O261    O    0.14566   0.21141   0.25986   1.000
    O262    O    0.21444   0.29322   0.26351   1.000
    O263    O    0.13530   0.76858   0.27943   1.000
    O264    O    0.28806   0.38752   0.26487   1.000
    O265    O    0.36164   0.47930   0.26769   1.000
    O266    O    0.43856   0.57001   0.26872   1.000
    O267    O    0.45669   0.66532   0.27208   1.000
    O268    O    0.83768   0.76780   0.26648   1.000
    O269    O    0.78348   0.68231   0.27993   1.000
    O270    O    0.47718   0.76136   0.27712   1.000
    O271    O    0.49962   0.84882   0.27732   1.000
    O272    O    0.28791   0.32155   0.30006   1.000
    O273    O    0.75168   0.96107   0.28696   1.000
    O274    O    0.80524   0.04684   0.30076   1.000
    O275    O    0.72655   0.58455   0.29198   1.000
    O276    O    0.67166   0.48879   0.30646   1.000
    O277    O    0.41963   0.69598   0.31512   1.000
    O278    O    0.60465   0.39443   0.31549   1.000
    O279    O    0.58520   0.29914   0.31934   1.000
    O280    O    0.72026   0.64874   0.32526   1.000
    O281    O    0.86305   0.14525   0.31268   1.000
    O282    O    0.91222   0.23350   0.31956   1.000
    O283    O    0.27184   0.01596   0.31460   1.000
    O284    O    0.20378   0.93347   0.31889   1.000
    O285    O    0.06714   0.75314   0.31914   1.000
    O286    O    0.12982   0.83845   0.32061   1.000
    O287    O    0.56430   0.20301   0.32455   1.000
    O288    O    0.54191   0.11562   0.32487   1.000
    O289    O    0.87610   0.07537   0.35459   1.000
    O290    O    0.12237   0.91076   0.36322   1.000
    O291    O    0.62209   0.26851   0.36253   1.000
    O292    O    0.88154   0.01057   0.39863   1.000
    O293    O    0.95033   0.09960   0.39985   1.000
    O294    O    0.11564   0.97899   0.40307   1.000
    O295    O    0.04552   0.89072   0.40509   1.000
    O296    O    0.88421   0.92527   0.45534   1.000
    O297    O    0.04253   0.12397   0.45476   1.000
    O298    O    0.11417   0.06980   0.45509   1.000
    O299    O    0.95452   0.87186   0.45890   1.000
    O300    O    0.20619   0.35814   0.47995   1.000
    O301    O    0.34486   0.49327   0.48260   1.000
    O302    O    0.29543   0.40557   0.48536   1.000
    O303    O    0.24180   0.30649   0.48909   1.000
    O304    O    0.39542   0.45161   0.49225   1.000
    O305    O    0.52639   0.66359   0.49089   1.000
    O306    O    0.67052   0.79244   0.49281   1.000
    O307    O    0.16378   0.18272   0.49527   1.000
    O308    O    0.28579   0.25262   0.49900   1.000
    O309    O    0.61438   0.70412   0.49531   1.000
    O310    O    0.55841   0.60420   0.49818   1.000
    O311    O    0.71354   0.74748   0.50050   1.000
    O312    O    0.04462   0.12758   0.53868   1.000
    O313    O    0.11584   0.07452   0.54150   1.000
    O314    O    0.49965   0.50007   0.50001   1.000
    O315    O    0.44082   0.39598   0.50240   1.000
    O316    O    0.83564   0.81726   0.50265   1.000
    O317    O    0.88438   0.93013   0.54173   1.000
    O318    O    0.95629   0.87642   0.54338   1.000
    O319    O    0.60397   0.54847   0.50702   1.000
    O320    O    0.38482   0.29607   0.50542   1.000
    O321    O    0.32867   0.20775   0.50762   1.000
    O322    O    0.75768   0.69352   0.50921   1.000
    O323    O    0.47266   0.33667   0.51104   1.000
    O324    O    0.70409   0.59443   0.51287   1.000
    O325    O    0.65469   0.50672   0.51543   1.000
    O326    O    0.79343   0.64180   0.51736   1.000
    O327    O    0.95338   0.10850   0.59264   1.000
    O328    O    0.88268   0.02072   0.59389   1.000
    O329    O    0.11845   0.98943   0.59864   1.000
    O330    O    0.04844   0.90100   0.59871   1.000
    O331    O    0.87698   0.08877   0.63460   1.000
    O332    O    0.12295   0.92503   0.64366   1.000
    O333    O    0.37485   0.73155   0.63904   1.000
    O334    O    0.27634   0.35135   0.67486   1.000
    O335    O    0.58191   0.30399   0.68619   1.000
    O336    O    0.08597   0.76695   0.67914   1.000
    O337    O    0.45629   0.88449   0.67638   1.000
    O338    O    0.43373   0.79706   0.67649   1.000
    O339    O    0.41276   0.70088   0.68140   1.000
    O340    O    0.87031   0.16105   0.67775   1.000
    O341    O    0.79605   0.06618   0.67947   1.000
    O342    O    0.93331   0.24623   0.67930   1.000
    O343    O    0.39324   0.60556   0.68486   1.000
    O344    O    0.32596   0.51131   0.69410   1.000
    O345    O    0.72775   0.98382   0.68385   1.000
    O346    O    0.13543   0.85518   0.68596   1.000
    O347    O    0.19353   0.95358   0.69779   1.000
    O348    O    0.71400   0.67821   0.70000   1.000
    O349    O    0.49921   0.86401   0.72166   1.000
    O350    O    0.86565   0.23091   0.71944   1.000
    O351    O    0.71751   0.04191   0.72257   1.000
    O352    O    0.14567   0.78757   0.72671   1.000
    O353    O    0.27086   0.41563   0.70861   1.000
    O354    O    0.21371   0.31790   0.72064   1.000
    O355    O    0.45764   0.67173   0.73134   1.000
    O356    O    0.24738   0.03934   0.71153   1.000
    O357    O    0.52328   0.23860   0.72368   1.000
    O358    O    0.54387   0.33470   0.72843   1.000
    O359    O    0.50067   0.15110   0.72370   1.000
    O360    O    0.56205   0.43008   0.73147   1.000
    O361    O    0.63929   0.52068   0.73281   1.000
    O362    O    0.26096   0.48370   0.74946   1.000
    O363    O    0.26093   0.98370   0.75057   1.000
    O364    O    0.71313   0.61227   0.73564   1.000
    O365    O    0.78701   0.70641   0.73703   1.000
    O366    O    0.15939   0.23245   0.73414   1.000
    O367    O    0.85601   0.78807   0.74080   1.000
    O368    O    0.45761   0.17170   0.76870   1.000
    O369    O    0.14569   0.28758   0.77329   1.000
    O370    O    0.49918   0.36398   0.77836   1.000
    O371    O    0.85605   0.28812   0.75915   1.000
    O372    O    0.78705   0.20645   0.76290   1.000
    O373    O    0.71747   0.54188   0.77741   1.000
    O374    O    0.71318   0.11231   0.76431   1.000
    O375    O    0.63934   0.02073   0.76718   1.000
    O376    O    0.86561   0.73088   0.78052   1.000
    O377    O    0.56210   0.93013   0.76854   1.000
    O378    O    0.54392   0.83476   0.77159   1.000
    O379    O    0.15937   0.73245   0.76388   1.000
    O380    O    0.21368   0.81790   0.77938   1.000
    O381    O    0.50071   0.65116   0.77633   1.000
    O382    O    0.52332   0.73866   0.77636   1.000
    O383    O    0.71406   0.17827   0.79994   1.000
    O384    O    0.24742   0.53936   0.78850   1.000
    O385    O    0.19356   0.45359   0.80223   1.000
    O386    O    0.27083   0.91563   0.79142   1.000
    O387    O    0.32593   0.01130   0.80591   1.000
    O388    O    0.58197   0.80406   0.81384   1.000
    O389    O    0.39322   0.10555   0.81515   1.000
    O390    O    0.41274   0.20088   0.81864   1.000
    O391    O    0.27631   0.85135   0.82514   1.000
    O392    O    0.13545   0.35519   0.81405   1.000
    O393    O    0.08599   0.26697   0.82086   1.000
    O394    O    0.72773   0.48381   0.81614   1.000
    O395    O    0.79603   0.56618   0.82051   1.000
    O396    O    0.93329   0.74621   0.82066   1.000
    O397    O    0.87029   0.66104   0.82223   1.000
    O398    O    0.43372   0.29705   0.82353   1.000
    O399    O    0.45629   0.38449   0.82363   1.000
    O400    O    0.12298   0.42505   0.85635   1.000
    O401    O    0.87697   0.58878   0.86539   1.000
    O402    O    0.37486   0.23157   0.86099   1.000
    O403    O    0.04846   0.40102   0.90129   1.000
    O404    O    0.11847   0.48946   0.90136   1.000
    O405    O    0.88268   0.52073   0.90610   1.000
    O406    O    0.95338   0.60852   0.90735   1.000
    O407    O    0.95630   0.37643   0.95661   1.000
    O408    O    0.88439   0.43013   0.95826   1.000
    O409    O    0.79343   0.14180   0.98262   1.000
    O410    O    0.65469   0.00673   0.98457   1.000
    O411    O    0.47266   0.83668   0.98901   1.000
    O412    O    0.70409   0.09443   0.98712   1.000
    O413    O    0.75768   0.19352   0.99077   1.000
    O414    O    0.60398   0.04848   0.99298   1.000
    O415    O    0.32867   0.70777   0.99214   1.000
    O416    O    0.38482   0.79609   0.99462   1.000
    O417    O    0.83564   0.31725   0.99733   1.000
    O418    O    0.99971   0.99997   0.49859   1.000
    O419    O    0.99971   0.49997   0.99980   1.000
loop_
    _geom_bond_atom_site_label_1
    _geom_bond_atom_site_label_2
    _geom_bond_distance
    _geom_bond_site_symmetry_2
    _ccdc_geom_bond_type
    C3     O196      1.03962      .   S
    C171   O196      1.03962      .   S
    C3     O197      1.05784      .   S
    C176   O197      1.05784      .   S
    C3     O198      1.05138      .   S
    C190   O198      1.05138  1_655   S
    C3     O199      1.02679  1_554   S
    C179   O199      1.02679      .   S
    C3     O200      1.01666  1_554   S
    C189   O200      1.01666      .   S
    C171   O201      0.68218      .   S
    C147   O201      0.68218      .   S
    C171   O202      0.66968  1_554   S
    C143   O202      0.66968      .   S
    C145   O203      0.70258      .   S
    C146   O203      0.70258      .   S
    C145   O204      0.70260  1_554   S
    C144   O204      0.70260      .   S
    C145   O205      0.74266  1_564   S
    C95    O205      0.74266      .   S
    C93    O206      0.69420      .   S
    C94    O206      0.69420      .   S
    C93    O207      0.54471      .   S
    C20    O207      0.54471      .   S
    C93    O208      0.67455  1_554   S
    C169   O208      0.67455      .   S
    C94    O209      0.54345      .   S
    C21    O209      0.54345      .   S
    C94    O210      0.70264      .   S
    C95    O210      0.70264  1_556   S
    C146   O211      0.69442      .   S
    C147   O211      0.69442      .   S
    C146   O212      0.54319      .   S
    C54    O212      0.54319  1_545   S
    C147   O213      0.54474      .   S
    C55    O213      0.54474      .   S
    C177   O214      0.63643  1_655   S
    C92    O214      0.63643      .   S
    C177   O215      1.03116      .   S
    C1     O215      1.03116  1_556   S
    C176   O216      0.63850      .   S
    C92    O216      0.63850      .   S
    C190   O217      0.63668      .   S
    C148   O217      0.63668      .   S
    C191   O218      0.63797      .   S
    C148   O218      0.63797      .   S
    C191   O219      1.04379      .   S
    C1     O219      1.04379  1_556   S
    C92    O220      0.75179      .   S
    C90    O220      0.75179      .   S
    C15    O221      0.54478      .   S
    C85    O221      0.54478      .   S
    C148   O222      0.75142      .   S
    C149   O222      0.75142      .   S
    C10    O223      0.54386      .   S
    C77    O223      0.54386      .   S
    C61    O224      0.54473      .   S
    C157   O224      0.54473      .   S
    C14    O225      0.54449      .   S
    C84    O225      0.54449      .   S
    C85    O226      0.69814      .   S
    C84    O226      0.69814      .   S
    C85    O227      0.69737      .   S
    C80    O227      0.69737      .   S
    C56    O228      0.54402      .   S
    C150   O228      0.54402      .   S
    C90    O229      0.70021      .   S
    C89    O229      0.70021      .   S
    C90    O230      0.70170      .   S
    C91    O230      0.70170      .   S
    C18    O231      0.54376      .   S
    C89    O231      0.54376      .   S
    C174   O232      0.69575      .   S
    C80    O232      0.69575      .   S
    C174   O233      0.69608      .   S
    C78    O233      0.69608  1_545   S
    C19    O234      0.54364      .   S
    C91    O234      0.54364      .   S
    C149   O235      0.70048      .   S
    C150   O235      0.70048      .   S
    C149   O236      0.70087      .   S
    C154   O236      0.70087      .   S
    C64    O237      0.54430      .   S
    C162   O237      0.54430      .   S
    C84    O238      0.69724      .   S
    C83    O238      0.69724      .   S
    C89    O239      0.69851      .   S
    C88    O239      0.69851      .   S
    C91    O240      0.69662      .   S
    C86    O240      0.69662      .   S
    C150   O241      0.69804      .   S
    C151   O241      0.69804      .   S
    C77    O242      0.69896      .   S
    C78    O242      0.69896      .   S
    C77    O243      0.69721      .   S
    C76    O243      0.69721      .   S
    C80    O244      0.69839      .   S
    C81    O244      0.69839      .   S
    C59    O245      0.54365      .   S
    C154   O245      0.54365      .   S
    C60    O246      0.54399      .   S
    C156   O246      0.54399      .   S
    C157   O247      0.69668      .   S
    C156   O247      0.69668      .   S
    C157   O248      0.69789      .   S
    C158   O248      0.69789      .   S
    C193   O249      0.69738      .   S
    C158   O249      0.69738      .   S
    C193   O250      0.69621  1_545   S
    C161   O250      0.69621      .   S
    C78    O251      0.69674      .   S
    C79    O251      0.69674      .   S
    C154   O252      0.69683      .   S
    C153   O252      0.69683      .   S
    C162   O253      0.70004      .   S
    C161   O253      0.70004      .   S
    C162   O254      0.69700      .   S
    C163   O254      0.69700      .   S
    C9     O255      0.54474      .   S
    C76    O255      0.54474      .   S
    C65    O256      0.54482      .   S
    C163   O256      0.54482      .   S
    C156   O257      0.69842      .   S
    C155   O257      0.69842      .   S
    C76    O258      0.69799      .   S
    C75    O258      0.69799      .   S
    C158   O259      0.69723      .   S
    C159   O259      0.69723      .   S
    C161   O260      0.69658      .   S
    C166   O260      0.69658      .   S
    C88    O261      0.54481      .   S
    C17    O261      0.54481      .   S
    C88    O262      0.69685      .   S
    C87    O262      0.69685      .   S
    C163   O263      0.69852      .   S
    C164   O263      0.69852      .   S
    C86    O264      0.69988      .   S
    C87    O264      0.69988      .   S
    C86    O265      0.69620      .   S
    C175   O265      0.69620      .   S
    C83    O266      0.69741      .   S
    C175   O266      0.69741      .   S
    C83    O267      0.69793      .   S
    C82    O267      0.69793      .   S
    C151   O268      0.54472      .   S
    C57    O268      0.54472      .   S
    C151   O269      0.69719      .   S
    C152   O269      0.69719      .   S
    C81    O270      0.69669      .   S
    C82    O270      0.69669      .   S
    C81    O271      0.54398      .   S
    C12    O271      0.54398      .   S
    C87    O272      0.54462      .   S
    C16    O272      0.54462      .   S
    C79    O273      0.54359  1_545   S
    C11    O273      0.54359      .   S
    C79    O274      0.70091      .   S
    C74    O274      0.70091      .   S
    C153   O275      0.69896      .   S
    C152   O275      0.69896      .   S
    C153   O276      0.69611      .   S
    C192   O276      0.69611      .   S
    C82    O277      0.54476      .   S
    C13    O277      0.54476      .   S
    C155   O278      0.69576      .   S
    C192   O278      0.69576      .   S
    C155   O279      0.69735      .   S
    C160   O279      0.69735      .   S
    C152   O280      0.54384      .   S
    C58    O280      0.54384      .   S
    C75    O281      0.70049      .   S
    C74    O281      0.70049      .   S
    C75    O282      0.54360      .   S
    C8     O282      0.54360      .   S
    C166   O283      0.54357  1_565   S
    C67    O283      0.54357      .   S
    C166   O284      0.70169      .   S
    C165   O284      0.70169      .   S
    C164   O285      0.54375      .   S
    C66    O285      0.54375      .   S
    C164   O286      0.70020      .   S
    C165   O286      0.70020      .   S
    C159   O287      0.69815      .   S
    C160   O287      0.69815      .   S
    C159   O288      0.54451      .   S
    C62    O288      0.54451      .   S
    C74    O289      0.75140      .   S
    C73    O289      0.75140      .   S
    C165   O290      0.75165      .   S
    C167   O290      0.75165      .   S
    C160   O291      0.54482      .   S
    C63    O291      0.54482      .   S
    C73    O292      0.63768      .   S
    C173   O292      0.63768  1_565   S
    C73    O293      0.63670      .   S
    C172   O293      0.63670      .   S
    C167   O294      0.63848      .   S
    C194   O294      0.63848  1_545   S
    C167   O295      0.63650      .   S
    C195   O295      0.63650  1_655   S
    C173   O296      1.04432      .   S
    C2     O296      1.04432      .   S
    C172   O297      1.03241  1_655   S
    C0     O297      1.03241      .   S
    C194   O298      1.03918      .   S
    C0     O298      1.03918      .   S
    C195   O299      1.03124      .   S
    C2     O299      1.03124      .   S
    C7     O300      0.54474      .   S
    C72    O300      0.54474      .   S
    C6     O301      0.54319      .   S
    C71    O301      0.54319      .   S
    C72    O302      0.69440      .   S
    C71    O302      0.69440      .   S
    C72    O303      0.67399      .   S
    C168   O303      0.67399      .   S
    C71    O304      0.70266      .   S
    C70    O304      0.70266      .   S
    C37    O305      0.54345      .   S
    C119   O305      0.54345      .   S
    C36    O306      0.54471      .   S
    C118   O306      0.54471      .   S
    C168   O307      1.03993      .   S
    C0     O307      1.03993      .   S
    C168   O308      0.67459      .   S
    C68    O308      0.67459      .   S
    C119   O309      0.69420      .   S
    C118   O309      0.69420      .   S
    C119   O310      0.70270      .   S
    C120   O310      0.70270      .   S
    C118   O311      0.67455      .   S
    C170   O311      0.67455      .   S
    C0     O312      1.03508      .   S
    C183   O312      1.03508      .   S
    C0     O313      1.04629      .   S
    C185   O313      1.04629      .   S
    C70    O314      0.74263      .   S
    C120   O314      0.74263      .   S
    C70    O315      0.70269      .   S
    C69    O315      0.70269      .   S
    C2     O316      1.03996      .   S
    C170   O316      1.03996      .   S
    C2     O317      1.04178      .   S
    C182   O317      1.04178      .   S
    C2     O318      1.03515      .   S
    C184   O318      1.03515  1_455   S
    C120   O319      0.70262      .   S
    C121   O319      0.70262      .   S
    C68    O320      0.69417      .   S
    C69    O320      0.69417      .   S
    C68    O321      0.54414      .   S
    C4     O321      0.54414      .   S
    C170   O322      0.67393      .   S
    C122   O322      0.67393      .   S
    C69    O323      0.54346      .   S
    C5     O323      0.54346      .   S
    C121   O324      0.69438      .   S
    C122   O324      0.69438      .   S
    C121   O325      0.54322      .   S
    C38    O325      0.54322      .   S
    C122   O326      0.54473      .   S
    C39    O326      0.54473      .   S
    C183   O327      0.63351  1_455   S
    C117   O327      0.63351      .   S
    C182   O328      0.63836  1_565   S
    C117   O328      0.63836      .   S
    C185   O329      0.63781  1_545   S
    C123   O329      0.63781      .   S
    C184   O330      0.63674      .   S
    C123   O330      0.63674      .   S
    C117   O331      0.75208      .   S
    C115   O331      0.75208      .   S
    C123   O332      0.75177      .   S
    C124   O332      0.75177      .   S
    C31    O333      0.54482      .   S
    C110   O333      0.54482      .   S
    C26    O334      0.54439      .   S
    C102   O334      0.54439      .   S
    C45    O335      0.54475      .   S
    C132   O335      0.54475      .   S
    C40    O336      0.54398      .   S
    C125   O336      0.54398      .   S
    C30    O337      0.54447      .   S
    C109   O337      0.54447      .   S
    C110   O338      0.69813      .   S
    C109   O338      0.69813      .   S
    C110   O339      0.69728      .   S
    C105   O339      0.69728      .   S
    C115   O340      0.70020      .   S
    C114   O340      0.70020      .   S
    C115   O341      0.70189      .   S
    C116   O341      0.70189      .   S
    C34    O342      0.54376      .   S
    C114   O342      0.54376      .   S
    C180   O343      0.69605      .   S
    C105   O343      0.69605      .   S
    C180   O344      0.69649      .   S
    C103   O344      0.69649      .   S
    C35    O345      0.54359      .   S
    C116   O345      0.54359  1_545   S
    C124   O346      0.70048      .   S
    C125   O346      0.70048      .   S
    C124   O347      0.70110      .   S
    C129   O347      0.70110      .   S
    C48    O348      0.54409      .   S
    C137   O348      0.54409      .   S
    C109   O349      0.69724      .   S
    C108   O349      0.69724      .   S
    C114   O350      0.69855      .   S
    C113   O350      0.69855      .   S
    C116   O351      0.69666      .   S
    C111   O351      0.69666      .   S
    C125   O352      0.69806      .   S
    C126   O352      0.69806      .   S
    C102   O353      0.69902      .   S
    C103   O353      0.69902      .   S
    C102   O354      0.69714      .   S
    C101   O354      0.69714      .   S
    C105   O355      0.69846      .   S
    C106   O355      0.69846      .   S
    C43    O356      0.54366      .   S
    C129   O356      0.54366  1_565   S
    C132   O357      0.69680      .   S
    C131   O357      0.69680      .   S
    C132   O358      0.69802      .   S
    C133   O358      0.69802      .   S
    C44    O359      0.54403      .   S
    C131   O359      0.54403      .   S
    C187   O360      0.69737      .   S
    C133   O360      0.69737      .   S
    C187   O361      0.69625      .   S
    C136   O361      0.69625      .   S
    C103   O362      0.69705      .   S
    C104   O362      0.69705      .   S
    C129   O363      0.69706      .   S
    C128   O363      0.69706      .   S
    C137   O364      0.70017      .   S
    C136   O364      0.70017      .   S
    C137   O365      0.69708      .   S
    C138   O365      0.69708      .   S
    C25    O366      0.54474      .   S
    C101   O366      0.54474      .   S
    C49    O367      0.54480      .   S
    C138   O367      0.54480      .   S
    C131   O368      0.69842      .   S
    C130   O368      0.69842      .   S
    C101   O369      0.69802      .   S
    C100   O369      0.69802      .   S
    C133   O370      0.69716      .   S
    C134   O370      0.69716      .   S
    C113   O371      0.54481      .   S
    C33    O371      0.54481      .   S
    C113   O372      0.69695      .   S
    C112   O372      0.69695      .   S
    C136   O373      0.69669      .   S
    C141   O373      0.69669      .   S
    C111   O374      0.70006      .   S
    C112   O374      0.70006      .   S
    C111   O375      0.69628      .   S
    C181   O375      0.69628  1_565   S
    C138   O376      0.69858      .   S
    C139   O376      0.69858      .   S
    C108   O377      0.69737      .   S
    C181   O377      0.69737      .   S
    C108   O378      0.69799      .   S
    C107   O378      0.69799      .   S
    C126   O379      0.53722      .   S
    C41    O379      0.53722      .   S
    C126   O380      0.69714      .   S
    C127   O380      0.69714      .   S
    C106   O381      0.54383      .   S
    C28    O381      0.54383      .   S
    C106   O382      0.69679      .   S
    C107   O382      0.69679      .   S
    C112   O383      0.54437      .   S
    C32    O383      0.54437      .   S
    C104   O384      0.54374      .   S
    C27    O384      0.54374      .   S
    C104   O385      0.70113      .   S
    C99    O385      0.70113      .   S
    C128   O386      0.69901      .   S
    C127   O386      0.69901      .   S
    C128   O387      0.69617  1_565   S
    C186   O387      0.69617      .   S
    C107   O388      0.54480      .   S
    C29    O388      0.54480      .   S
    C130   O389      0.69588      .   S
    C186   O389      0.69588      .   S
    C130   O390      0.69732      .   S
    C135   O390      0.69732      .   S
    C127   O391      0.54386      .   S
    C42    O391      0.54386      .   S
    C100   O392      0.70050      .   S
    C99    O392      0.70050      .   S
    C100   O393      0.54404      .   S
    C24    O393      0.54404      .   S
    C141   O394      0.54366      .   S
    C51    O394      0.54366      .   S
    C141   O395      0.70189      .   S
    C140   O395      0.70189      .   S
    C139   O396      0.54373      .   S
    C50    O396      0.54373      .   S
    C139   O397      0.70021      .   S
    C140   O397      0.70021      .   S
    C134   O398      0.69817      .   S
    C135   O398      0.69817      .   S
    C134   O399      0.54450      .   S
    C46    O399      0.54450      .   S
    C99    O400      0.75175      .   S
    C98    O400      0.75175      .   S
    C140   O401      0.75208      .   S
    C142   O401      0.75208      .   S
    C135   O402      0.54475      .   S
    C47    O402      0.54475      .   S
    C98    O403      0.63673      .   S
    C178   O403      0.63673      .   S
    C98    O404      0.63788      .   S
    C179   O404      0.63788      .   S
    C142   O405      0.63844      .   S
    C188   O405      0.63844      .   S
    C142   O406      0.63347      .   S
    C189   O406      0.63347  1_455   S
    C178   O407      1.03523  1_455   S
    C1     O407      1.03523      .   S
    C188   O408      1.04179      .   S
    C1     O408      1.04179      .   S
    C23    O409      0.54472      .   S
    C97    O409      0.54472      .   S
    C22    O410      0.54313  1_565   S
    C96    O410      0.54313      .   S
    C53    O411      0.54345      .   S
    C144   O411      0.54345      .   S
    C97    O412      0.69439      .   S
    C96    O412      0.69439      .   S
    C97    O413      0.67388      .   S
    C169   O413      0.67388      .   S
    C96    O414      0.70263      .   S
    C95    O414      0.70263      .   S
    C52    O415      0.54470      .   S
    C143   O415      0.54470      .   S
    C144   O416      0.69417      .   S
    C143   O416      0.69417      .   S
    C169   O417      1.03997      .   S
    C1     O417      1.03997      .   S
    C0     O418      1.42205  1_445   S
    C2     O418      1.42205      .   S
    C1     O419      1.42187      .   S
    C3     O419      1.42187  1_454   S
