# CIF file generated by openbabel 2.4.90, see http://openbabel.sf.net
data_I
_chemical_name_common ''
_cell_length_a 15.37
_cell_length_b 20.104
_cell_length_c 17.697
_cell_angle_alpha 90
_cell_angle_beta 89.987
_cell_angle_gamma 89.999
_space_group_name_H-M_alt 'P 1'
_space_group_name_Hall 'P 1'
loop_
    _symmetry_equiv_pos_as_xyz
    x,y,z
loop_
    _atom_site_label
    _atom_site_type_symbol
    _atom_site_fract_x
    _atom_site_fract_y
    _atom_site_fract_z
    _atom_site_occupancy
    Zr0     Zr   0.23775   0.37500   0.73720   1.000
    Zr1     Zr   0.23775   0.87501   0.73720   1.000
    Zr2     Zr   0.73775   0.37500   0.73720   1.000
    Zr3     Zr   0.73775   0.87501   0.73720   1.000
    Zr4     Zr   0.01147   0.12500   0.23725   1.000
    Zr5     Zr   0.01147   0.62501   0.23725   1.000
    Zr6     Zr   0.51147   0.12500   0.23725   1.000
    Zr7     Zr   0.51147   0.62501   0.23725   1.000
    Zr8     Zr   0.26224   0.12500   0.26279   1.000
    Zr9     Zr   0.26224   0.62501   0.26279   1.000
    Zr10    Zr   0.76224   0.12500   0.26279   1.000
    Zr11    Zr   0.76224   0.62501   0.26279   1.000
    Zr12    Zr   0.48853   0.37500   0.76273   1.000
    Zr13    Zr   0.48853   0.87501   0.76273   1.000
    Zr14    Zr   0.98853   0.37500   0.76273   1.000
    Zr15    Zr   0.98853   0.87501   0.76273   1.000
    Zr16    Zr   0.31494   0.12500   0.92159   1.000
    Zr17    Zr   0.31494   0.62501   0.92159   1.000
    Zr18    Zr   0.81494   0.12500   0.92159   1.000
    Zr19    Zr   0.81494   0.62501   0.92159   1.000
    Zr20    Zr   0.43619   0.37500   0.42169   1.000
    Zr21    Zr   0.43619   0.87501   0.42169   1.000
    Zr22    Zr   0.93619   0.37500   0.42169   1.000
    Zr23    Zr   0.93619   0.87501   0.42169   1.000
    Zr24    Zr   0.18506   0.37500   0.07840   1.000
    Zr25    Zr   0.18506   0.87501   0.07840   1.000
    Zr26    Zr   0.68506   0.37500   0.07840   1.000
    Zr27    Zr   0.68506   0.87501   0.07840   1.000
    Zr28    Zr   0.06380   0.12500   0.57830   1.000
    Zr29    Zr   0.06381   0.62501   0.57830   1.000
    Zr30    Zr   0.56380   0.12500   0.57830   1.000
    Zr31    Zr   0.56381   0.62501   0.57830   1.000
    Zr32    Zr   0.48418   0.01859   0.87178   1.000
    Zr33    Zr   0.48418   0.51859   0.87178   1.000
    Zr34    Zr   0.98418   0.01859   0.87178   1.000
    Zr35    Zr   0.98418   0.51859   0.87178   1.000
    Zr36    Zr   0.21649   0.02149   0.82352   1.000
    Zr37    Zr   0.21649   0.52150   0.82352   1.000
    Zr38    Zr   0.71649   0.02149   0.82352   1.000
    Zr39    Zr   0.71649   0.52150   0.82352   1.000
    Zr40    Zr   0.26628   0.48114   0.37208   1.000
    Zr41    Zr   0.26628   0.98115   0.37208   1.000
    Zr42    Zr   0.76628   0.48114   0.37208   1.000
    Zr43    Zr   0.76629   0.98115   0.37208   1.000
    Zr44    Zr   0.03395   0.47875   0.32351   1.000
    Zr45    Zr   0.03395   0.97875   0.32351   1.000
    Zr46    Zr   0.53395   0.47875   0.32351   1.000
    Zr47    Zr   0.53396   0.97875   0.32351   1.000
    Zr48    Zr   0.01581   0.26859   0.12821   1.000
    Zr49    Zr   0.01581   0.76860   0.12821   1.000
    Zr50    Zr   0.51581   0.26859   0.12821   1.000
    Zr51    Zr   0.51581   0.76860   0.12821   1.000
    Zr52    Zr   0.28350   0.27150   0.17647   1.000
    Zr53    Zr   0.28350   0.77150   0.17647   1.000
    Zr54    Zr   0.78350   0.27150   0.17647   1.000
    Zr55    Zr   0.78350   0.77150   0.17647   1.000
    Zr56    Zr   0.23371   0.23114   0.62791   1.000
    Zr57    Zr   0.23371   0.73114   0.62791   1.000
    Zr58    Zr   0.73371   0.23114   0.62791   1.000
    Zr59    Zr   0.73371   0.73114   0.62791   1.000
    Zr60    Zr   0.46604   0.22874   0.67649   1.000
    Zr61    Zr   0.46605   0.72875   0.67649   1.000
    Zr62    Zr   0.96605   0.22874   0.67649   1.000
    Zr63    Zr   0.96605   0.72875   0.67649   1.000
    Zr64    Zr   0.01582   0.48142   0.12821   1.000
    Zr65    Zr   0.01582   0.98143   0.12821   1.000
    Zr66    Zr   0.51582   0.48142   0.12821   1.000
    Zr67    Zr   0.51582   0.98143   0.12821   1.000
    Zr68    Zr   0.28351   0.47851   0.17640   1.000
    Zr69    Zr   0.28351   0.97852   0.17640   1.000
    Zr70    Zr   0.78351   0.47851   0.17640   1.000
    Zr71    Zr   0.78351   0.97852   0.17640   1.000
    Zr72    Zr   0.23371   0.01886   0.62791   1.000
    Zr73    Zr   0.23371   0.51887   0.62791   1.000
    Zr74    Zr   0.73371   0.01886   0.62791   1.000
    Zr75    Zr   0.73371   0.51887   0.62791   1.000
    Zr76    Zr   0.46604   0.02126   0.67648   1.000
    Zr77    Zr   0.46604   0.52127   0.67648   1.000
    Zr78    Zr   0.96604   0.02126   0.67648   1.000
    Zr79    Zr   0.96604   0.52127   0.67648   1.000
    Zr80    Zr   0.48418   0.23142   0.87178   1.000
    Zr81    Zr   0.48418   0.73142   0.87178   1.000
    Zr82    Zr   0.98418   0.23142   0.87178   1.000
    Zr83    Zr   0.98418   0.73142   0.87178   1.000
    Zr84    Zr   0.21649   0.22851   0.82352   1.000
    Zr85    Zr   0.21649   0.72852   0.82352   1.000
    Zr86    Zr   0.71649   0.22851   0.82352   1.000
    Zr87    Zr   0.71649   0.72852   0.82352   1.000
    Zr88    Zr   0.26628   0.26887   0.37208   1.000
    Zr89    Zr   0.26628   0.76888   0.37208   1.000
    Zr90    Zr   0.76628   0.26887   0.37208   1.000
    Zr91    Zr   0.76628   0.76888   0.37208   1.000
    Zr92    Zr   0.03395   0.27126   0.32350   1.000
    Zr93    Zr   0.03395   0.77127   0.32350   1.000
    Zr94    Zr   0.53395   0.27126   0.32350   1.000
    Zr95    Zr   0.53395   0.77127   0.32350   1.000
    Zr96    Zr   0.27005   0.37501   0.92237   1.000
    Zr97    Zr   0.27005   0.87501   0.92237   1.000
    Zr98    Zr   0.77005   0.37501   0.92237   1.000
    Zr99    Zr   0.77005   0.87501   0.92237   1.000
    Zr100   Zr   0.00038   0.37500   0.96230   1.000
    Zr101   Zr   0.00038   0.87501   0.96230   1.000
    Zr102   Zr   0.50038   0.37500   0.96230   1.000
    Zr103   Zr   0.50038   0.87501   0.96230   1.000
    Zr104   Zr   0.47984   0.12500   0.42211   1.000
    Zr105   Zr   0.47984   0.62501   0.42211   1.000
    Zr106   Zr   0.97984   0.12500   0.42211   1.000
    Zr107   Zr   0.97985   0.62501   0.42211   1.000
    Zr108   Zr   0.24935   0.12500   0.46266   1.000
    Zr109   Zr   0.24935   0.62501   0.46266   1.000
    Zr110   Zr   0.74935   0.12500   0.46266   1.000
    Zr111   Zr   0.74935   0.62501   0.46266   1.000
    Zr112   Zr   0.22995   0.12500   0.07762   1.000
    Zr113   Zr   0.22995   0.62501   0.07762   1.000
    Zr114   Zr   0.72995   0.12500   0.07762   1.000
    Zr115   Zr   0.72995   0.62501   0.07762   1.000
    Zr116   Zr   0.49962   0.12500   0.03769   1.000
    Zr117   Zr   0.49962   0.62501   0.03769   1.000
    Zr118   Zr   0.99962   0.12500   0.03769   1.000
    Zr119   Zr   0.99962   0.62501   0.03769   1.000
    Zr120   Zr   0.02015   0.37500   0.57788   1.000
    Zr121   Zr   0.02015   0.87501   0.57788   1.000
    Zr122   Zr   0.52015   0.37500   0.57788   1.000
    Zr123   Zr   0.52015   0.87501   0.57788   1.000
    Zr124   Zr   0.25064   0.37500   0.53733   1.000
    Zr125   Zr   0.25064   0.87501   0.53733   1.000
    Zr126   Zr   0.75064   0.37500   0.53733   1.000
    Zr127   Zr   0.75064   0.87501   0.53733   1.000
    Zr128   Zr   0.42020   0.00558   0.85041   1.000
    Zr129   Zr   0.42020   0.50559   0.85041   1.000
    Zr130   Zr   0.92020   0.00558   0.85041   1.000
    Zr131   Zr   0.92020   0.50559   0.85041   1.000
    Zr132   Zr   0.28442   0.00706   0.82470   1.000
    Zr133   Zr   0.28443   0.50706   0.82470   1.000
    Zr134   Zr   0.78443   0.00706   0.82470   1.000
    Zr135   Zr   0.78443   0.50706   0.82470   1.000
    Zr136   Zr   0.33019   0.49424   0.35061   1.000
    Zr137   Zr   0.33019   0.99425   0.35061   1.000
    Zr138   Zr   0.83019   0.49424   0.35061   1.000
    Zr139   Zr   0.83019   0.99425   0.35061   1.000
    Zr140   Zr   0.46596   0.49302   0.32483   1.000
    Zr141   Zr   0.46596   0.99303   0.32483   1.000
    Zr142   Zr   0.96596   0.49302   0.32483   1.000
    Zr143   Zr   0.96596   0.99303   0.32483   1.000
    Zr144   Zr   0.07979   0.25559   0.14958   1.000
    Zr145   Zr   0.07979   0.75559   0.14958   1.000
    Zr146   Zr   0.57979   0.25559   0.14958   1.000
    Zr147   Zr   0.57979   0.75559   0.14958   1.000
    Zr148   Zr   0.21556   0.25706   0.17522   1.000
    Zr149   Zr   0.21556   0.75706   0.17522   1.000
    Zr150   Zr   0.71556   0.25706   0.17522   1.000
    Zr151   Zr   0.71557   0.75706   0.17522   1.000
    Zr152   Zr   0.16981   0.24424   0.64938   1.000
    Zr153   Zr   0.16981   0.74425   0.64938   1.000
    Zr154   Zr   0.66980   0.24424   0.64938   1.000
    Zr155   Zr   0.66981   0.74425   0.64938   1.000
    Zr156   Zr   0.03404   0.24302   0.67516   1.000
    Zr157   Zr   0.03404   0.74303   0.67516   1.000
    Zr158   Zr   0.53404   0.24302   0.67516   1.000
    Zr159   Zr   0.53404   0.74303   0.67516   1.000
    Zr160   Zr   0.07980   0.49443   0.14958   1.000
    Zr161   Zr   0.07980   0.99443   0.14958   1.000
    Zr162   Zr   0.57980   0.49443   0.14958   1.000
    Zr163   Zr   0.57980   0.99443   0.14958   1.000
    Zr164   Zr   0.21557   0.49295   0.17522   1.000
    Zr165   Zr   0.21557   0.99296   0.17522   1.000
    Zr166   Zr   0.71557   0.49295   0.17522   1.000
    Zr167   Zr   0.71557   0.99296   0.17522   1.000
    Zr168   Zr   0.16980   0.00576   0.64938   1.000
    Zr169   Zr   0.16980   0.50577   0.64938   1.000
    Zr170   Zr   0.66980   0.00576   0.64938   1.000
    Zr171   Zr   0.66980   0.50577   0.64938   1.000
    Zr172   Zr   0.03403   0.00698   0.67516   1.000
    Zr173   Zr   0.03403   0.50699   0.67516   1.000
    Zr174   Zr   0.53403   0.00698   0.67516   1.000
    Zr175   Zr   0.53403   0.50699   0.67516   1.000
    Zr176   Zr   0.42020   0.24442   0.85041   1.000
    Zr177   Zr   0.42020   0.74443   0.85041   1.000
    Zr178   Zr   0.92020   0.24442   0.85041   1.000
    Zr179   Zr   0.92020   0.74443   0.85041   1.000
    Zr180   Zr   0.28443   0.24295   0.82470   1.000
    Zr181   Zr   0.28443   0.74296   0.82470   1.000
    Zr182   Zr   0.78443   0.24295   0.82470   1.000
    Zr183   Zr   0.78443   0.74296   0.82470   1.000
    Zr184   Zr   0.33019   0.25577   0.35061   1.000
    Zr185   Zr   0.33019   0.75577   0.35061   1.000
    Zr186   Zr   0.83019   0.25577   0.35061   1.000
    Zr187   Zr   0.83019   0.75577   0.35061   1.000
    Zr188   Zr   0.46596   0.25698   0.32483   1.000
    Zr189   Zr   0.46596   0.75699   0.32483   1.000
    Zr190   Zr   0.96596   0.25698   0.32483   1.000
    Zr191   Zr   0.96596   0.75699   0.32483   1.000
    Zr192   Zr   0.20030   0.37501   0.91329   1.000
    Zr193   Zr   0.20030   0.87501   0.91329   1.000
    Zr194   Zr   0.70030   0.37501   0.91329   1.000
    Zr195   Zr   0.70030   0.87501   0.91329   1.000
    Zr196   Zr   0.06334   0.37500   0.93435   1.000
    Zr197   Zr   0.06334   0.87501   0.93435   1.000
    Zr198   Zr   0.56334   0.37500   0.93435   1.000
    Zr199   Zr   0.56334   0.87501   0.93435   1.000
    Zr200   Zr   0.04963   0.12500   0.41320   1.000
    Zr201   Zr   0.04963   0.62501   0.41320   1.000
    Zr202   Zr   0.54963   0.12500   0.41320   1.000
    Zr203   Zr   0.54963   0.62501   0.41320   1.000
    Zr204   Zr   0.18649   0.12500   0.43456   1.000
    Zr205   Zr   0.18649   0.62501   0.43456   1.000
    Zr206   Zr   0.68649   0.12500   0.43456   1.000
    Zr207   Zr   0.68649   0.62501   0.43456   1.000
    Zr208   Zr   0.29970   0.12500   0.08670   1.000
    Zr209   Zr   0.29970   0.62501   0.08670   1.000
    Zr210   Zr   0.79970   0.12500   0.08670   1.000
    Zr211   Zr   0.79970   0.62501   0.08670   1.000
    Zr212   Zr   0.43665   0.12500   0.06564   1.000
    Zr213   Zr   0.43666   0.62501   0.06564   1.000
    Zr214   Zr   0.93665   0.12500   0.06564   1.000
    Zr215   Zr   0.93666   0.62501   0.06564   1.000
    Zr216   Zr   0.45037   0.37501   0.58679   1.000
    Zr217   Zr   0.45037   0.87501   0.58679   1.000
    Zr218   Zr   0.95037   0.37501   0.58679   1.000
    Zr219   Zr   0.95037   0.87501   0.58679   1.000
    Zr220   Zr   0.31351   0.37500   0.56543   1.000
    Zr221   Zr   0.31351   0.87501   0.56543   1.000
    Zr222   Zr   0.81351   0.37500   0.56543   1.000
    Zr223   Zr   0.81351   0.87501   0.56543   1.000
    Zr224   Zr   0.31667   0.45309   0.79150   1.000
    Zr225   Zr   0.31667   0.95310   0.79150   1.000
    Zr226   Zr   0.81667   0.45309   0.79150   1.000
    Zr227   Zr   0.81667   0.95310   0.79150   1.000
    Zr228   Zr   0.34667   0.04178   0.86247   1.000
    Zr229   Zr   0.34667   0.54179   0.86247   1.000
    Zr230   Zr   0.84667   0.04178   0.86247   1.000
    Zr231   Zr   0.84667   0.54179   0.86247   1.000
    Zr232   Zr   0.40432   0.45197   0.80817   1.000
    Zr233   Zr   0.40432   0.95198   0.80817   1.000
    Zr234   Zr   0.90432   0.45197   0.80817   1.000
    Zr235   Zr   0.90432   0.95198   0.80817   1.000
    Zr236   Zr   0.43349   0.04690   0.29165   1.000
    Zr237   Zr   0.43349   0.54691   0.29165   1.000
    Zr238   Zr   0.93349   0.04690   0.29165   1.000
    Zr239   Zr   0.93349   0.54691   0.29165   1.000
    Zr240   Zr   0.40387   0.45820   0.36261   1.000
    Zr241   Zr   0.40387   0.95821   0.36261   1.000
    Zr242   Zr   0.90387   0.45820   0.36261   1.000
    Zr243   Zr   0.90387   0.95821   0.36261   1.000
    Zr244   Zr   0.34587   0.04788   0.30833   1.000
    Zr245   Zr   0.34587   0.54789   0.30833   1.000
    Zr246   Zr   0.84586   0.04788   0.30833   1.000
    Zr247   Zr   0.84587   0.54789   0.30833   1.000
    Zr248   Zr   0.18332   0.20309   0.20841   1.000
    Zr249   Zr   0.18332   0.70309   0.20841   1.000
    Zr250   Zr   0.68332   0.20309   0.20841   1.000
    Zr251   Zr   0.68332   0.70309   0.20841   1.000
    Zr252   Zr   0.15332   0.29179   0.13752   1.000
    Zr253   Zr   0.15332   0.79179   0.13752   1.000
    Zr254   Zr   0.65332   0.29179   0.13752   1.000
    Zr255   Zr   0.65332   0.79179   0.13752   1.000
    Zr256   Zr   0.09567   0.20197   0.19181   1.000
    Zr257   Zr   0.09567   0.70197   0.19181   1.000
    Zr258   Zr   0.59567   0.20197   0.19181   1.000
    Zr259   Zr   0.59567   0.70197   0.19181   1.000
    Zr260   Zr   0.06651   0.29691   0.70834   1.000
    Zr261   Zr   0.06651   0.79691   0.70834   1.000
    Zr262   Zr   0.56651   0.29691   0.70834   1.000
    Zr263   Zr   0.56651   0.79691   0.70834   1.000
    Zr264   Zr   0.09613   0.20820   0.63738   1.000
    Zr265   Zr   0.09613   0.70820   0.63738   1.000
    Zr266   Zr   0.59613   0.20820   0.63738   1.000
    Zr267   Zr   0.59613   0.70820   0.63738   1.000
    Zr268   Zr   0.15413   0.29788   0.69166   1.000
    Zr269   Zr   0.15413   0.79789   0.69166   1.000
    Zr270   Zr   0.65413   0.29788   0.69166   1.000
    Zr271   Zr   0.65413   0.79789   0.69166   1.000
    Zr272   Zr   0.18332   0.04692   0.20841   1.000
    Zr273   Zr   0.18333   0.54692   0.20841   1.000
    Zr274   Zr   0.68333   0.04692   0.20841   1.000
    Zr275   Zr   0.68333   0.54692   0.20841   1.000
    Zr276   Zr   0.15332   0.45822   0.13752   1.000
    Zr277   Zr   0.15332   0.95823   0.13752   1.000
    Zr278   Zr   0.65332   0.45822   0.13752   1.000
    Zr279   Zr   0.65332   0.95823   0.13752   1.000
    Zr280   Zr   0.09568   0.04804   0.19182   1.000
    Zr281   Zr   0.09568   0.54804   0.19182   1.000
    Zr282   Zr   0.59568   0.04804   0.19182   1.000
    Zr283   Zr   0.59568   0.54804   0.19182   1.000
    Zr284   Zr   0.06651   0.45310   0.70834   1.000
    Zr285   Zr   0.06651   0.95311   0.70834   1.000
    Zr286   Zr   0.56651   0.45310   0.70834   1.000
    Zr287   Zr   0.56651   0.95311   0.70834   1.000
    Zr288   Zr   0.09612   0.04181   0.63738   1.000
    Zr289   Zr   0.09613   0.54181   0.63738   1.000
    Zr290   Zr   0.59613   0.04181   0.63738   1.000
    Zr291   Zr   0.59613   0.54181   0.63738   1.000
    Zr292   Zr   0.15413   0.45213   0.69166   1.000
    Zr293   Zr   0.15413   0.95213   0.69166   1.000
    Zr294   Zr   0.65413   0.45213   0.69166   1.000
    Zr295   Zr   0.65413   0.95213   0.69166   1.000
    Zr296   Zr   0.31667   0.29692   0.79157   1.000
    Zr297   Zr   0.31667   0.79692   0.79157   1.000
    Zr298   Zr   0.81667   0.29692   0.79157   1.000
    Zr299   Zr   0.81667   0.79692   0.79157   1.000
    Zr300   Zr   0.34668   0.20822   0.86247   1.000
    Zr301   Zr   0.34668   0.70823   0.86247   1.000
    Zr302   Zr   0.84668   0.20822   0.86247   1.000
    Zr303   Zr   0.84668   0.70823   0.86247   1.000
    Zr304   Zr   0.40432   0.29804   0.80810   1.000
    Zr305   Zr   0.40432   0.79805   0.80817   1.000
    Zr306   Zr   0.90432   0.29804   0.80817   1.000
    Zr307   Zr   0.90432   0.79805   0.80817   1.000
    Zr308   Zr   0.43348   0.20310   0.29165   1.000
    Zr309   Zr   0.43348   0.70311   0.29165   1.000
    Zr310   Zr   0.93348   0.20310   0.29165   1.000
    Zr311   Zr   0.93348   0.70311   0.29165   1.000
    Zr312   Zr   0.40387   0.29181   0.36261   1.000
    Zr313   Zr   0.40387   0.79182   0.36261   1.000
    Zr314   Zr   0.90387   0.29181   0.36261   1.000
    Zr315   Zr   0.90387   0.79182   0.36261   1.000
    Zr316   Zr   0.34586   0.20212   0.30833   1.000
    Zr317   Zr   0.34586   0.70213   0.30833   1.000
    Zr318   Zr   0.84586   0.20212   0.30833   1.000
    Zr319   Zr   0.84586   0.70213   0.30833   1.000
    Zr320   Zr   0.16204   0.37501   0.84600   1.000
    Zr321   Zr   0.16204   0.87501   0.84600   1.000
    Zr322   Zr   0.66205   0.37501   0.84600   1.000
    Zr323   Zr   0.66205   0.87501   0.84600   1.000
    Zr324   Zr   0.07365   0.37500   0.85945   1.000
    Zr325   Zr   0.07365   0.87501   0.85945   1.000
    Zr326   Zr   0.57365   0.37501   0.85945   1.000
    Zr327   Zr   0.57365   0.87501   0.85945   1.000
    Zr328   Zr   0.14147   0.37501   0.97069   1.000
    Zr329   Zr   0.14147   0.87501   0.97069   1.000
    Zr330   Zr   0.64147   0.37501   0.97069   1.000
    Zr331   Zr   0.64147   0.87501   0.97069   1.000
    Zr332   Zr   0.08809   0.12500   0.34599   1.000
    Zr333   Zr   0.08809   0.62501   0.34599   1.000
    Zr334   Zr   0.58809   0.12500   0.34599   1.000
    Zr335   Zr   0.58809   0.62501   0.34599   1.000
    Zr336   Zr   0.17646   0.12500   0.35962   1.000
    Zr337   Zr   0.17646   0.62501   0.35962   1.000
    Zr338   Zr   0.67646   0.12500   0.35962   1.000
    Zr339   Zr   0.67646   0.62501   0.35962   1.000
    Zr340   Zr   0.10822   0.12500   0.47075   1.000
    Zr341   Zr   0.10822   0.62501   0.47075   1.000
    Zr342   Zr   0.60822   0.12500   0.47075   1.000
    Zr343   Zr   0.60822   0.62501   0.47075   1.000
    Zr344   Zr   0.33795   0.12500   0.15399   1.000
    Zr345   Zr   0.33795   0.62501   0.15399   1.000
    Zr346   Zr   0.83795   0.12500   0.15399   1.000
    Zr347   Zr   0.83795   0.62501   0.15399   1.000
    Zr348   Zr   0.42634   0.12500   0.14054   1.000
    Zr349   Zr   0.42634   0.62501   0.14054   1.000
    Zr350   Zr   0.92634   0.12500   0.14054   1.000
    Zr351   Zr   0.92634   0.62501   0.14054   1.000
    Zr352   Zr   0.35852   0.12500   0.02930   1.000
    Zr353   Zr   0.35852   0.62501   0.02930   1.000
    Zr354   Zr   0.85852   0.12500   0.02930   1.000
    Zr355   Zr   0.85852   0.62501   0.02930   1.000
    Zr356   Zr   0.41191   0.37500   0.65400   1.000
    Zr357   Zr   0.41191   0.87501   0.65400   1.000
    Zr358   Zr   0.91191   0.37500   0.65400   1.000
    Zr359   Zr   0.91191   0.87501   0.65400   1.000
    Zr360   Zr   0.32353   0.37500   0.64037   1.000
    Zr361   Zr   0.32354   0.87501   0.64037   1.000
    Zr362   Zr   0.82353   0.37500   0.64037   1.000
    Zr363   Zr   0.82354   0.87501   0.64037   1.000
    Zr364   Zr   0.39177   0.37500   0.52924   1.000
    Zr365   Zr   0.39177   0.87501   0.52924   1.000
    Zr366   Zr   0.89178   0.37500   0.52924   1.000
    Zr367   Zr   0.89178   0.87501   0.52924   1.000
    Zr368   Zr   0.16643   0.12501   0.92698   1.000
    Zr369   Zr   0.16643   0.62501   0.92698   1.000
    Zr370   Zr   0.66643   0.12501   0.92698   1.000
    Zr371   Zr   0.66643   0.62501   0.92698   1.000
    Zr372   Zr   0.08449   0.37500   0.42706   1.000
    Zr373   Zr   0.08450   0.87501   0.42706   1.000
    Zr374   Zr   0.58449   0.37500   0.42706   1.000
    Zr375   Zr   0.58450   0.87501   0.42706   1.000
    Zr376   Zr   0.33356   0.37500   0.07301   1.000
    Zr377   Zr   0.33357   0.87501   0.07301   1.000
    Zr378   Zr   0.83357   0.37500   0.07301   1.000
    Zr379   Zr   0.83357   0.87501   0.07301   1.000
    Zr380   Zr   0.41550   0.12501   0.57292   1.000
    Zr381   Zr   0.41550   0.62501   0.57292   1.000
    Zr382   Zr   0.91550   0.12501   0.57292   1.000
    Zr383   Zr   0.91550   0.62501   0.57292   1.000
    O384    O    0.89759   0.62501   0.04747   1.000
    O385    O    0.82911   0.62501   0.05800   1.000
    O386    O    0.83673   0.62501   0.97545   1.000
    O387    O    0.89759   0.12500   0.04747   1.000
    O388    O    0.82911   0.12500   0.05800   1.000
    O389    O    0.83673   0.12500   0.97545   1.000
    O390    O    0.39759   0.62501   0.04747   1.000
    O391    O    0.32911   0.62501   0.05800   1.000
    O392    O    0.33673   0.62501   0.97545   1.000
    O393    O    0.39759   0.12500   0.04747   1.000
    O394    O    0.32911   0.12500   0.05800   1.000
    O395    O    0.33673   0.12500   0.97545   1.000
    O396    O    0.46814   0.62501   0.05167   1.000
    O397    O    0.46814   0.12500   0.05167   1.000
    O398    O    0.96814   0.12500   0.05167   1.000
    O399    O    0.96814   0.62501   0.05167   1.000
    O400    O    0.43150   0.62501   0.10309   1.000
    O401    O    0.93150   0.12500   0.10309   1.000
    O402    O    0.93150   0.62501   0.10309   1.000
    O403    O    0.43150   0.12500   0.10309   1.000
    O404    O    0.75931   0.87501   0.07571   1.000
    O405    O    0.75931   0.37500   0.07571   1.000
    O406    O    0.25931   0.87501   0.07571   1.000
    O407    O    0.25931   0.37500   0.07571   1.000
    O408    O    0.26482   0.12500   0.08216   1.000
    O409    O    0.26482   0.62501   0.08216   1.000
    O410    O    0.76482   0.12500   0.08216   1.000
    O411    O    0.76482   0.62501   0.08216   1.000
    O412    O    0.66919   0.83340   0.10796   1.000
    O413    O    0.66919   0.91662   0.10796   1.000
    O414    O    0.66326   0.87501   0.02455   1.000
    O415    O    0.66919   0.41661   0.10796   1.000
    O416    O    0.66919   0.33340   0.10796   1.000
    O417    O    0.66326   0.37500   0.02455   1.000
    O418    O    0.16919   0.83340   0.10796   1.000
    O419    O    0.16919   0.91662   0.10796   1.000
    O420    O    0.16326   0.87501   0.02455   1.000
    O421    O    0.16919   0.33340   0.10796   1.000
    O422    O    0.16919   0.41661   0.10796   1.000
    O423    O    0.16326   0.37500   0.02455   1.000
    O424    O    0.81883   0.62501   0.12035   1.000
    O425    O    0.81882   0.12500   0.12035   1.000
    O426    O    0.31883   0.62501   0.12035   1.000
    O427    O    0.31882   0.12500   0.12035   1.000
    O428    O    0.04781   0.48792   0.13889   1.000
    O429    O    0.04781   0.98793   0.13889   1.000
    O430    O    0.54781   0.48792   0.13889   1.000
    O431    O    0.54781   0.98793   0.13889   1.000
    O432    O    0.54780   0.76209   0.13889   1.000
    O433    O    0.54780   0.26209   0.13889   1.000
    O434    O    0.04780   0.76209   0.13889   1.000
    O435    O    0.04780   0.26209   0.13889   1.000
    O436    O    0.61656   0.47632   0.14355   1.000
    O437    O    0.68444   0.47559   0.15637   1.000
    O438    O    0.61656   0.77369   0.14355   1.000
    O439    O    0.68444   0.77443   0.15637   1.000
    O440    O    0.61655   0.27369   0.14355   1.000
    O441    O    0.68444   0.27442   0.15637   1.000
    O442    O    0.11655   0.77369   0.14355   1.000
    O443    O    0.18444   0.77443   0.15637   1.000
    O444    O    0.11655   0.27369   0.14355   1.000
    O445    O    0.18444   0.27442   0.15637   1.000
    O446    O    0.11656   0.97633   0.14355   1.000
    O447    O    0.18445   0.97559   0.15637   1.000
    O448    O    0.11656   0.47632   0.14355   1.000
    O449    O    0.18444   0.47559   0.15637   1.000
    O450    O    0.61656   0.97633   0.14355   1.000
    O451    O    0.68445   0.97559   0.15637   1.000
    O452    O    0.88215   0.12500   0.14727   1.000
    O453    O    0.96890   0.12500   0.18890   1.000
    O454    O    0.38215   0.62501   0.14727   1.000
    O455    O    0.46891   0.62501   0.18890   1.000
    O456    O    0.88215   0.62501   0.14727   1.000
    O457    O    0.96891   0.62501   0.18890   1.000
    O458    O    0.38215   0.12500   0.14727   1.000
    O459    O    0.46890   0.12500   0.18890   1.000
    O460    O    0.08774   0.52123   0.17070   1.000
    O461    O    0.08774   0.02123   0.17070   1.000
    O462    O    0.58774   0.52123   0.17070   1.000
    O463    O    0.58774   0.02123   0.17070   1.000
    O464    O    0.08773   0.22878   0.17070   1.000
    O465    O    0.08773   0.72878   0.17070   1.000
    O466    O    0.58773   0.22878   0.17070   1.000
    O467    O    0.58773   0.72878   0.17070   1.000
    O468    O    0.30010   0.12500   0.20839   1.000
    O469    O    0.80010   0.62501   0.20839   1.000
    O470    O    0.80010   0.12500   0.20839   1.000
    O471    O    0.30010   0.62501   0.20839   1.000
    O472    O    0.24954   0.48573   0.17581   1.000
    O473    O    0.19945   0.51994   0.19182   1.000
    O474    O    0.24954   0.98574   0.17581   1.000
    O475    O    0.19945   0.01994   0.19182   1.000
    O476    O    0.24953   0.26428   0.17584   1.000
    O477    O    0.19944   0.23007   0.19182   1.000
    O478    O    0.74954   0.48573   0.17581   1.000
    O479    O    0.69945   0.51994   0.19182   1.000
    O480    O    0.74954   0.98574   0.17581   1.000
    O481    O    0.69945   0.01994   0.19182   1.000
    O482    O    0.24953   0.76428   0.17584   1.000
    O483    O    0.19944   0.73008   0.19182   1.000
    O484    O    0.74953   0.26428   0.17584   1.000
    O485    O    0.69944   0.23007   0.19182   1.000
    O486    O    0.74953   0.76428   0.17584   1.000
    O487    O    0.69944   0.73008   0.19182   1.000
    O488    O    0.13950   0.20253   0.20011   1.000
    O489    O    0.05357   0.16348   0.21453   1.000
    O490    O    0.63950   0.70253   0.20011   1.000
    O491    O    0.55357   0.66349   0.21453   1.000
    O492    O    0.63950   0.20253   0.20011   1.000
    O493    O    0.55357   0.16348   0.21453   1.000
    O494    O    0.13950   0.70253   0.20011   1.000
    O495    O    0.05357   0.66349   0.21453   1.000
    O496    O    0.63950   0.54748   0.20012   1.000
    O497    O    0.55357   0.58653   0.21454   1.000
    O498    O    0.13950   0.04748   0.20012   1.000
    O499    O    0.05357   0.08652   0.21454   1.000
    O500    O    0.63950   0.04748   0.20012   1.000
    O501    O    0.55357   0.08652   0.21454   1.000
    O502    O    0.13950   0.54748   0.20012   1.000
    O503    O    0.05357   0.58653   0.21454   1.000
    O504    O    0.22279   0.58596   0.23560   1.000
    O505    O    0.72279   0.08596   0.23560   1.000
    O506    O    0.22278   0.08596   0.23560   1.000
    O507    O    0.72278   0.66405   0.23560   1.000
    O508    O    0.72278   0.16405   0.23560   1.000
    O509    O    0.22278   0.66405   0.23560   1.000
    O510    O    0.22278   0.16405   0.23560   1.000
    O511    O    0.72279   0.58596   0.23560   1.000
    O512    O    0.97248   0.08595   0.26445   1.000
    O513    O    0.97247   0.16405   0.26445   1.000
    O514    O    0.04978   0.12500   0.29162   1.000
    O515    O    0.97248   0.58596   0.26445   1.000
    O516    O    0.97248   0.66406   0.26445   1.000
    O517    O    0.04978   0.62501   0.29162   1.000
    O518    O    0.47248   0.08595   0.26445   1.000
    O519    O    0.47247   0.16405   0.26445   1.000
    O520    O    0.54978   0.12500   0.29162   1.000
    O521    O    0.47248   0.58596   0.26445   1.000
    O522    O    0.47248   0.66406   0.26445   1.000
    O523    O    0.54978   0.62501   0.29162   1.000
    O524    O    0.30405   0.16356   0.28556   1.000
    O525    O    0.30405   0.08644   0.28556   1.000
    O526    O    0.21935   0.12500   0.31121   1.000
    O527    O    0.30405   0.66357   0.28556   1.000
    O528    O    0.30405   0.58645   0.28556   1.000
    O529    O    0.21935   0.62501   0.31121   1.000
    O530    O    0.80405   0.08644   0.28556   1.000
    O531    O    0.80405   0.16356   0.28556   1.000
    O532    O    0.71935   0.12500   0.31121   1.000
    O533    O    0.80406   0.58645   0.28556   1.000
    O534    O    0.80405   0.66357   0.28556   1.000
    O535    O    0.71935   0.62501   0.31121   1.000
    O536    O    0.38968   0.04739   0.29999   1.000
    O537    O    0.44972   0.01997   0.30824   1.000
    O538    O    0.38968   0.54740   0.29999   1.000
    O539    O    0.44972   0.51997   0.30824   1.000
    O540    O    0.88968   0.04739   0.29999   1.000
    O541    O    0.94972   0.01997   0.30824   1.000
    O542    O    0.88968   0.54740   0.29999   1.000
    O543    O    0.94972   0.51997   0.30824   1.000
    O544    O    0.38967   0.20261   0.29999   1.000
    O545    O    0.44972   0.23004   0.30824   1.000
    O546    O    0.38967   0.70262   0.29999   1.000
    O547    O    0.44972   0.73005   0.30824   1.000
    O548    O    0.88967   0.20261   0.29999   1.000
    O549    O    0.94972   0.23004   0.30824   1.000
    O550    O    0.88967   0.70262   0.29999   1.000
    O551    O    0.94972   0.73005   0.30824   1.000
    O552    O    0.83803   0.02107   0.32947   1.000
    O553    O    0.83803   0.52107   0.32947   1.000
    O554    O    0.33803   0.22895   0.32947   1.000
    O555    O    0.33803   0.02107   0.32947   1.000
    O556    O    0.83803   0.72895   0.32947   1.000
    O557    O    0.83803   0.22895   0.32947   1.000
    O558    O    0.33803   0.72895   0.32947   1.000
    O559    O    0.33803   0.52107   0.32947   1.000
    O560    O    0.49995   0.76413   0.32416   1.000
    O561    O    0.99995   0.26412   0.32416   1.000
    O562    O    0.99995   0.76413   0.32416   1.000
    O563    O    0.49995   0.26412   0.32416   1.000
    O564    O    0.99996   0.48588   0.32417   1.000
    O565    O    0.99996   0.98589   0.32417   1.000
    O566    O    0.49996   0.48588   0.32417   1.000
    O567    O    0.49996   0.98589   0.32417   1.000
    O568    O    0.43492   0.47561   0.34372   1.000
    O569    O    0.43492   0.97562   0.34372   1.000
    O570    O    0.93492   0.47561   0.34372   1.000
    O571    O    0.93492   0.97562   0.34372   1.000
    O572    O    0.43491   0.77440   0.34372   1.000
    O573    O    0.93491   0.27440   0.34372   1.000
    O574    O    0.93491   0.77440   0.34372   1.000
    O575    O    0.43491   0.27440   0.34372   1.000
    O576    O    0.63228   0.62501   0.35280   1.000
    O577    O    0.56886   0.62501   0.37960   1.000
    O578    O    0.63227   0.12500   0.35280   1.000
    O579    O    0.56886   0.12500   0.37960   1.000
    O580    O    0.13228   0.62501   0.35280   1.000
    O581    O    0.06886   0.62501   0.37960   1.000
    O582    O    0.13227   0.12500   0.35280   1.000
    O583    O    0.06886   0.12500   0.37960   1.000
    O584    O    0.36703   0.27379   0.35661   1.000
    O585    O    0.29824   0.26232   0.36134   1.000
    O586    O    0.36703   0.47622   0.35661   1.000
    O587    O    0.29824   0.48769   0.36134   1.000
    O588    O    0.36703   0.97623   0.35661   1.000
    O589    O    0.29824   0.98770   0.36134   1.000
    O590    O    0.86703   0.47622   0.35661   1.000
    O591    O    0.79824   0.48769   0.36134   1.000
    O592    O    0.86703   0.97623   0.35661   1.000
    O593    O    0.79824   0.98770   0.36134   1.000
    O594    O    0.36703   0.77379   0.35661   1.000
    O595    O    0.29824   0.76232   0.36134   1.000
    O596    O    0.86703   0.27379   0.35661   1.000
    O597    O    0.79823   0.26232   0.36134   1.000
    O598    O    0.86703   0.77379   0.35661   1.000
    O599    O    0.79824   0.76232   0.36134   1.000
    O600    O    0.18147   0.12500   0.39709   1.000
    O601    O    0.18147   0.62501   0.39709   1.000
    O602    O    0.68147   0.12500   0.39709   1.000
    O603    O    0.68147   0.62501   0.39709   1.000
    O604    O    0.42003   0.83341   0.39215   1.000
    O605    O    0.42003   0.33341   0.39215   1.000
    O606    O    0.92003   0.33341   0.39215   1.000
    O607    O    0.92003   0.83341   0.39215   1.000
    O608    O    0.92003   0.41660   0.39215   1.000
    O609    O    0.42003   0.41660   0.39215   1.000
    O610    O    0.42003   0.91661   0.39215   1.000
    O611    O    0.92003   0.91661   0.39215   1.000
    O612    O    0.01474   0.62501   0.41765   1.000
    O613    O    0.07893   0.62501   0.44198   1.000
    O614    O    0.51474   0.62501   0.41765   1.000
    O615    O    0.57893   0.62501   0.44198   1.000
    O616    O    0.51474   0.12500   0.41765   1.000
    O617    O    0.57892   0.12500   0.44198   1.000
    O618    O    0.01474   0.12500   0.41765   1.000
    O619    O    0.07892   0.12500   0.44198   1.000
    O620    O    0.01034   0.87501   0.42438   1.000
    O621    O    0.91398   0.87501   0.47547   1.000
    O622    O    0.51034   0.37500   0.42438   1.000
    O623    O    0.41398   0.37500   0.47547   1.000
    O624    O    0.51034   0.87501   0.42438   1.000
    O625    O    0.41398   0.87501   0.47547   1.000
    O626    O    0.01034   0.37500   0.42438   1.000
    O627    O    0.91398   0.37500   0.47547   1.000
    O628    O    0.21792   0.62501   0.44861   1.000
    O629    O    0.14735   0.62501   0.45266   1.000
    O630    O    0.71792   0.12500   0.44861   1.000
    O631    O    0.64735   0.12500   0.45266   1.000
    O632    O    0.71792   0.62501   0.44861   1.000
    O633    O    0.64735   0.62501   0.45266   1.000
    O634    O    0.21792   0.12500   0.44861   1.000
    O635    O    0.14735   0.12500   0.45266   1.000
    O636    O    0.58601   0.62501   0.52453   1.000
    O637    O    0.58601   0.12500   0.52453   1.000
    O638    O    0.08601   0.62501   0.52453   1.000
    O639    O    0.08601   0.12500   0.52453   1.000
    O640    O    0.35264   0.37500   0.54733   1.000
    O641    O    0.42107   0.37501   0.55802   1.000
    O642    O    0.35264   0.87501   0.54733   1.000
    O643    O    0.42107   0.87501   0.55802   1.000
    O644    O    0.85264   0.37500   0.54733   1.000
    O645    O    0.92107   0.37501   0.55802   1.000
    O646    O    0.85264   0.87501   0.54733   1.000
    O647    O    0.92107   0.87501   0.55802   1.000
    O648    O    0.28208   0.87501   0.55138   1.000
    O649    O    0.28208   0.37500   0.55138   1.000
    O650    O    0.78208   0.37500   0.55138   1.000
    O651    O    0.78208   0.87501   0.55138   1.000
    O652    O    0.81852   0.87501   0.60290   1.000
    O653    O    0.31852   0.37500   0.60290   1.000
    O654    O    0.31852   0.87501   0.60290   1.000
    O655    O    0.81852   0.37500   0.60290   1.000
    O656    O    0.98965   0.62501   0.57561   1.000
    O657    O    0.48965   0.12500   0.57561   1.000
    O658    O    0.48965   0.62501   0.57561   1.000
    O659    O    0.98965   0.12500   0.57561   1.000
    O660    O    0.48526   0.87501   0.58234   1.000
    O661    O    0.48526   0.37501   0.58234   1.000
    O662    O    0.98526   0.87501   0.58234   1.000
    O663    O    0.98526   0.37501   0.58234   1.000
    O664    O    0.07997   0.66661   0.60784   1.000
    O665    O    0.07997   0.58341   0.60784   1.000
    O666    O    0.57997   0.16660   0.60784   1.000
    O667    O    0.57996   0.08340   0.60784   1.000
    O668    O    0.57997   0.66661   0.60784   1.000
    O669    O    0.57997   0.58341   0.60784   1.000
    O670    O    0.07997   0.16660   0.60784   1.000
    O671    O    0.07996   0.08340   0.60784   1.000
    O672    O    0.93114   0.37501   0.62040   1.000
    O673    O    0.93114   0.87501   0.62040   1.000
    O674    O    0.43114   0.87501   0.62040   1.000
    O675    O    0.43114   0.37501   0.62040   1.000
    O676    O    0.70176   0.51232   0.63864   1.000
    O677    O    0.70176   0.01231   0.63864   1.000
    O678    O    0.20176   0.51232   0.63864   1.000
    O679    O    0.20176   0.01231   0.63864   1.000
    O680    O    0.20176   0.23769   0.63864   1.000
    O681    O    0.70176   0.73769   0.63864   1.000
    O682    O    0.70176   0.23769   0.63864   1.000
    O683    O    0.20176   0.73769   0.63864   1.000
    O684    O    0.13297   0.22622   0.64338   1.000
    O685    O    0.06508   0.22561   0.65627   1.000
    O686    O    0.63297   0.72622   0.64338   1.000
    O687    O    0.56508   0.72562   0.65627   1.000
    O688    O    0.63297   0.22622   0.64338   1.000
    O689    O    0.56508   0.22561   0.65627   1.000
    O690    O    0.13297   0.72622   0.64338   1.000
    O691    O    0.06508   0.72562   0.65627   1.000
    O692    O    0.13296   0.52379   0.64338   1.000
    O693    O    0.06508   0.52440   0.65627   1.000
    O694    O    0.63296   0.02378   0.64338   1.000
    O695    O    0.56508   0.02439   0.65627   1.000
    O696    O    0.63296   0.52379   0.64338   1.000
    O697    O    0.56508   0.52440   0.65627   1.000
    O698    O    0.13296   0.02378   0.64338   1.000
    O699    O    0.06508   0.02439   0.65627   1.000
    O700    O    0.86772   0.87501   0.64719   1.000
    O701    O    0.78064   0.87501   0.68879   1.000
    O702    O    0.36772   0.87501   0.64719   1.000
    O703    O    0.28064   0.87501   0.68879   1.000
    O704    O    0.86772   0.37500   0.64719   1.000
    O705    O    0.78064   0.37500   0.68879   1.000
    O706    O    0.36772   0.37500   0.64719   1.000
    O707    O    0.28064   0.37500   0.68879   1.000
    O708    O    0.66197   0.77107   0.67052   1.000
    O709    O    0.66197   0.27106   0.67052   1.000
    O710    O    0.16197   0.77107   0.67052   1.000
    O711    O    0.16197   0.27106   0.67052   1.000
    O712    O    0.66197   0.47895   0.67052   1.000
    O713    O    0.16197   0.97895   0.67052   1.000
    O714    O    0.16197   0.47895   0.67052   1.000
    O715    O    0.66197   0.97895   0.67052   1.000
    O716    O    0.45022   0.87501   0.70837   1.000
    O717    O    0.95022   0.37500   0.70837   1.000
    O718    O    0.95022   0.87501   0.70837   1.000
    O719    O    0.45022   0.37500   0.70837   1.000
    O720    O    0.00004   0.73589   0.67583   1.000
    O721    O    0.05028   0.76997   0.69175   1.000
    O722    O    0.50004   0.01412   0.67582   1.000
    O723    O    0.55027   0.98005   0.69175   1.000
    O724    O    0.00004   0.51413   0.67582   1.000
    O725    O    0.05027   0.48005   0.69175   1.000
    O726    O    0.00004   0.01412   0.67582   1.000
    O727    O    0.05027   0.98005   0.69175   1.000
    O728    O    0.50004   0.73589   0.67583   1.000
    O729    O    0.55028   0.76997   0.69175   1.000
    O730    O    0.50004   0.23588   0.67583   1.000
    O731    O    0.55028   0.26996   0.69175   1.000
    O732    O    0.00004   0.23588   0.67583   1.000
    O733    O    0.05027   0.26996   0.69175   1.000
    O734    O    0.50004   0.51413   0.67582   1.000
    O735    O    0.55027   0.48005   0.69175   1.000
    O736    O    0.11032   0.79740   0.70000   1.000
    O737    O    0.19594   0.83645   0.71443   1.000
    O738    O    0.11032   0.45262   0.70000   1.000
    O739    O    0.19594   0.41357   0.71443   1.000
    O740    O    0.11032   0.95262   0.70000   1.000
    O741    O    0.19594   0.91357   0.71443   1.000
    O742    O    0.61032   0.79740   0.70000   1.000
    O743    O    0.69594   0.83645   0.71443   1.000
    O744    O    0.61032   0.29739   0.70000   1.000
    O745    O    0.69594   0.33644   0.71443   1.000
    O746    O    0.11032   0.29739   0.70000   1.000
    O747    O    0.19594   0.33644   0.71443   1.000
    O748    O    0.61032   0.45262   0.70000   1.000
    O749    O    0.69594   0.41357   0.71443   1.000
    O750    O    0.61032   0.95262   0.70000   1.000
    O751    O    0.69594   0.91357   0.71443   1.000
    O752    O    0.02752   0.41405   0.73554   1.000
    O753    O    0.02752   0.83596   0.73554   1.000
    O754    O    0.52752   0.91406   0.73554   1.000
    O755    O    0.52752   0.41405   0.73554   1.000
    O756    O    0.02752   0.91406   0.73554   1.000
    O757    O    0.02752   0.33595   0.73554   1.000
    O758    O    0.52752   0.83596   0.73554   1.000
    O759    O    0.52752   0.33595   0.73554   1.000
    O760    O    0.27721   0.91405   0.76435   1.000
    O761    O    0.27721   0.83597   0.76439   1.000
    O762    O    0.19990   0.87501   0.79160   1.000
    O763    O    0.27721   0.41405   0.76435   1.000
    O764    O    0.27721   0.33596   0.76439   1.000
    O765    O    0.19990   0.37500   0.79160   1.000
    O766    O    0.77721   0.41405   0.76435   1.000
    O767    O    0.77721   0.33596   0.76439   1.000
    O768    O    0.69990   0.37500   0.79160   1.000
    O769    O    0.77721   0.91405   0.76435   1.000
    O770    O    0.77721   0.83597   0.76439   1.000
    O771    O    0.69990   0.87501   0.79160   1.000
    O772    O    0.44643   0.33652   0.78541   1.000
    O773    O    0.44642   0.41349   0.78545   1.000
    O774    O    0.53109   0.37500   0.81109   1.000
    O775    O    0.44643   0.83653   0.78545   1.000
    O776    O    0.44642   0.91349   0.78545   1.000
    O777    O    0.53109   0.87501   0.81109   1.000
    O778    O    0.94642   0.41349   0.78545   1.000
    O779    O    0.94643   0.33652   0.78545   1.000
    O780    O    0.03109   0.37500   0.81109   1.000
    O781    O    0.94643   0.83653   0.78545   1.000
    O782    O    0.94643   0.91349   0.78545   1.000
    O783    O    0.03109   0.87501   0.81109   1.000
    O784    O    0.36049   0.95254   0.79984   1.000
    O785    O    0.30055   0.98008   0.80810   1.000
    O786    O    0.36049   0.45253   0.79984   1.000
    O787    O    0.30055   0.48008   0.80810   1.000
    O788    O    0.86049   0.45253   0.79984   1.000
    O789    O    0.80055   0.48008   0.80810   1.000
    O790    O    0.86050   0.95254   0.79984   1.000
    O791    O    0.80055   0.98008   0.80810   1.000
    O792    O    0.36050   0.29748   0.79984   1.000
    O793    O    0.30055   0.26993   0.80814   1.000
    O794    O    0.36050   0.79749   0.79987   1.000
    O795    O    0.30055   0.76994   0.80814   1.000
    O796    O    0.86050   0.29748   0.79987   1.000
    O797    O    0.80055   0.26993   0.80814   1.000
    O798    O    0.86050   0.79749   0.79987   1.000
    O799    O    0.80055   0.76994   0.80814   1.000
    O800    O    0.41226   0.27123   0.82926   1.000
    O801    O    0.91226   0.47878   0.82929   1.000
    O802    O    0.91226   0.77124   0.82929   1.000
    O803    O    0.91226   0.27123   0.82929   1.000
    O804    O    0.41226   0.77124   0.82929   1.000
    O805    O    0.91226   0.97878   0.82929   1.000
    O806    O    0.41226   0.97878   0.82929   1.000
    O807    O    0.41226   0.47878   0.82929   1.000
    O808    O    0.25046   0.23573   0.82411   1.000
    O809    O    0.75046   0.73574   0.82411   1.000
    O810    O    0.75046   0.23573   0.82411   1.000
    O811    O    0.25046   0.73574   0.82411   1.000
    O812    O    0.75046   0.51428   0.82411   1.000
    O813    O    0.75046   0.01427   0.82411   1.000
    O814    O    0.25046   0.51428   0.82411   1.000
    O815    O    0.25046   0.01427   0.82411   1.000
    O816    O    0.31556   0.72559   0.84359   1.000
    O817    O    0.31555   0.22558   0.84359   1.000
    O818    O    0.81555   0.52443   0.84359   1.000
    O819    O    0.81555   0.02442   0.84359   1.000
    O820    O    0.31555   0.52443   0.84359   1.000
    O821    O    0.31555   0.02442   0.84359   1.000
    O822    O    0.81556   0.22558   0.84359   1.000
    O823    O    0.81556   0.72559   0.84359   1.000
    O824    O    0.61785   0.37501   0.85272   1.000
    O825    O    0.68117   0.37501   0.87965   1.000
    O826    O    0.61785   0.87501   0.85272   1.000
    O827    O    0.68117   0.87501   0.87965   1.000
    O828    O    0.11785   0.87501   0.85272   1.000
    O829    O    0.18117   0.87501   0.87965   1.000
    O830    O    0.11785   0.37500   0.85272   1.000
    O831    O    0.18117   0.37501   0.87965   1.000
    O832    O    0.38344   0.52369   0.85644   1.000
    O833    O    0.45219   0.51209   0.86110   1.000
    O834    O    0.88344   0.02368   0.85644   1.000
    O835    O    0.95219   0.01208   0.86110   1.000
    O836    O    0.88344   0.52369   0.85644   1.000
    O837    O    0.95219   0.51209   0.86110   1.000
    O838    O    0.38344   0.02368   0.85644   1.000
    O839    O    0.45219   0.01208   0.86110   1.000
    O840    O    0.38344   0.22632   0.85644   1.000
    O841    O    0.45219   0.23792   0.86110   1.000
    O842    O    0.38344   0.72633   0.85644   1.000
    O843    O    0.45219   0.73793   0.86110   1.000
    O844    O    0.88344   0.72633   0.85644   1.000
    O845    O    0.95219   0.73793   0.86110   1.000
    O846    O    0.88344   0.22632   0.85644   1.000
    O847    O    0.95219   0.23792   0.86110   1.000
    O848    O    0.56850   0.87501   0.89690   1.000
    O849    O    0.56850   0.37500   0.89690   1.000
    O850    O    0.06850   0.87501   0.89690   1.000
    O851    O    0.06850   0.37500   0.89690   1.000
    O852    O    0.83081   0.16661   0.89203   1.000
    O853    O    0.33081   0.66662   0.89203   1.000
    O854    O    0.33081   0.16661   0.89203   1.000
    O855    O    0.83081   0.58340   0.89203   1.000
    O856    O    0.83081   0.08339   0.89203   1.000
    O857    O    0.33081   0.58340   0.89203   1.000
    O858    O    0.33081   0.08339   0.89203   1.000
    O859    O    0.83081   0.66662   0.89203   1.000
    O860    O    0.73517   0.37501   0.91783   1.000
    O861    O    0.67088   0.37501   0.94199   1.000
    O862    O    0.23517   0.87501   0.91783   1.000
    O863    O    0.17088   0.87501   0.94199   1.000
    O864    O    0.23517   0.37501   0.91783   1.000
    O865    O    0.17088   0.37501   0.94199   1.000
    O866    O    0.73517   0.87501   0.91783   1.000
    O867    O    0.67088   0.87501   0.94199   1.000
    O868    O    0.74069   0.62501   0.92429   1.000
    O869    O    0.74068   0.12500   0.92429   1.000
    O870    O    0.24068   0.62501   0.92429   1.000
    O871    O    0.24068   0.12500   0.92429   1.000
    O872    O    0.03186   0.87501   0.94833   1.000
    O873    O    0.10241   0.87501   0.95252   1.000
    O874    O    0.53186   0.87501   0.94833   1.000
    O875    O    0.60241   0.87501   0.95252   1.000
    O876    O    0.53186   0.37500   0.94833   1.000
    O877    O    0.60241   0.37500   0.95252   1.000
    O878    O    0.03186   0.37500   0.94833   1.000
    O879    O    0.10241   0.37500   0.95252   1.000
loop_
    _geom_bond_atom_site_label_1
    _geom_bond_atom_site_label_2
    _geom_bond_distance
    _geom_bond_site_symmetry_2
    _ccdc_geom_bond_type
    Zr355  O384      0.68118      .   S
    Zr215  O384      0.68118      .   S
    Zr355  O385      0.67987      .   S
    Zr211  O385      0.67987      .   S
    Zr355  O386      1.01029  1_554   S
    Zr19   O386      1.01029      .   S
    Zr354  O387      0.68118      .   S
    Zr214  O387      0.68118      .   S
    Zr354  O388      0.67987      .   S
    Zr210  O388      0.67987      .   S
    Zr354  O389      1.01029  1_554   S
    Zr18   O389      1.01029      .   S
    Zr353  O390      0.68118      .   S
    Zr213  O390      0.68118      .   S
    Zr353  O391      0.67987      .   S
    Zr209  O391      0.67987      .   S
    Zr353  O392      1.01029  1_554   S
    Zr17   O392      1.01029      .   S
    Zr352  O393      0.68118      .   S
    Zr212  O393      0.68118      .   S
    Zr352  O394      0.67987      .   S
    Zr208  O394      0.67987      .   S
    Zr352  O395      1.01029  1_554   S
    Zr16   O395      1.01029      .   S
    Zr117  O396      0.54335      .   S
    Zr213  O396      0.54335      .   S
    Zr116  O397      0.54335      .   S
    Zr212  O397      0.54335      .   S
    Zr118  O398      0.54336      .   S
    Zr214  O398      0.54336      .   S
    Zr119  O399      0.54336      .   S
    Zr215  O399      0.54336      .   S
    Zr213  O400      0.66746      .   S
    Zr349  O400      0.66746      .   S
    Zr214  O401      0.66746      .   S
    Zr350  O401      0.66746      .   S
    Zr215  O402      0.66746      .   S
    Zr351  O402      0.66746      .   S
    Zr212  O403      0.66746      .   S
    Zr348  O403      0.66746      .   S
    Zr379  O404      1.14228      .   S
    Zr27   O404      1.14228      .   S
    Zr378  O405      1.14228      .   S
    Zr26   O405      1.14228      .   S
    Zr377  O406      1.14228      .   S
    Zr25   O406      1.14228      .   S
    Zr376  O407      1.14228      .   S
    Zr24   O407      1.14228      .   S
    Zr112  O408      0.54205      .   S
    Zr208  O408      0.54205      .   S
    Zr113  O409      0.54205      .   S
    Zr209  O409      0.54205      .   S
    Zr114  O410      0.54204      .   S
    Zr210  O410      0.54204      .   S
    Zr115  O411      0.54205      .   S
    Zr211  O411      0.54205      .   S
    Zr27   O412      1.01628      .   S
    Zr255  O412      1.01628      .   S
    Zr27   O413      1.01628      .   S
    Zr279  O413      1.01628      .   S
    Zr27   O414      1.01029      .   S
    Zr331  O414      1.01029  1_556   S
    Zr26   O415      1.01628      .   S
    Zr278  O415      1.01628      .   S
    Zr26   O416      1.01629      .   S
    Zr254  O416      1.01629      .   S
    Zr26   O417      1.01029      .   S
    Zr330  O417      1.01029  1_556   S
    Zr25   O418      1.01628      .   S
    Zr253  O418      1.01628      .   S
    Zr25   O419      1.01628      .   S
    Zr277  O419      1.01628      .   S
    Zr25   O420      1.01029      .   S
    Zr329  O420      1.01029  1_556   S
    Zr24   O421      1.01629      .   S
    Zr252  O421      1.01629      .   S
    Zr24   O422      1.01629      .   S
    Zr276  O422      1.01629      .   S
    Zr24   O423      1.01029      .   S
    Zr328  O423      1.01029  1_556   S
    Zr211  O424      0.66409      .   S
    Zr347  O424      0.66409      .   S
    Zr210  O425      0.66409      .   S
    Zr346  O425      0.66409      .   S
    Zr209  O426      0.66409      .   S
    Zr345  O426      0.66409      .   S
    Zr208  O427      0.66409      .   S
    Zr344  O427      0.66409      .   S
    Zr64   O428      0.54281      .   S
    Zr160  O428      0.54281      .   S
    Zr65   O429      0.54281      .   S
    Zr161  O429      0.54281      .   S
    Zr66   O430      0.54281      .   S
    Zr162  O430      0.54281      .   S
    Zr67   O431      0.54281      .   S
    Zr163  O431      0.54281      .   S
    Zr51   O432      0.54281      .   S
    Zr147  O432      0.54281      .   S
    Zr50   O433      0.54281      .   S
    Zr146  O433      0.54281      .   S
    Zr49   O434      0.54281      .   S
    Zr145  O434      0.54281      .   S
    Zr48   O435      0.54280      .   S
    Zr144  O435      0.54280      .   S
    Zr278  O436      0.68047      .   S
    Zr162  O436      0.68047      .   S
    Zr278  O437      0.67975      .   S
    Zr166  O437      0.67975      .   S
    Zr255  O438      0.68047      .   S
    Zr147  O438      0.68047      .   S
    Zr255  O439      0.67975      .   S
    Zr151  O439      0.67975      .   S
    Zr254  O440      0.68047      .   S
    Zr146  O440      0.68047      .   S
    Zr254  O441      0.67975      .   S
    Zr150  O441      0.67975      .   S
    Zr253  O442      0.68047      .   S
    Zr145  O442      0.68047      .   S
    Zr253  O443      0.67975      .   S
    Zr149  O443      0.67975      .   S
    Zr252  O444      0.68047      .   S
    Zr144  O444      0.68047      .   S
    Zr252  O445      0.67975      .   S
    Zr148  O445      0.67975      .   S
    Zr277  O446      0.68048      .   S
    Zr161  O446      0.68048      .   S
    Zr277  O447      0.67975      .   S
    Zr165  O447      0.67975      .   S
    Zr276  O448      0.68047      .   S
    Zr160  O448      0.68047      .   S
    Zr276  O449      0.67975      .   S
    Zr164  O449      0.67975      .   S
    Zr279  O450      0.68048      .   S
    Zr163  O450      0.68048      .   S
    Zr279  O451      0.67975      .   S
    Zr167  O451      0.67975      .   S
    Zr350  O452      0.68962      .   S
    Zr346  O452      0.68962      .   S
    Zr350  O453      1.07726      .   S
    Zr4    O453      1.07726  1_455   S
    Zr349  O454      0.68962      .   S
    Zr345  O454      0.68962      .   S
    Zr349  O455      1.07726      .   S
    Zr7    O455      1.07726      .   S
    Zr351  O456      0.68962      .   S
    Zr347  O456      0.68962      .   S
    Zr351  O457      1.07726      .   S
    Zr5    O457      1.07726  1_455   S
    Zr348  O458      0.68962      .   S
    Zr344  O458      0.68962      .   S
    Zr348  O459      1.07726      .   S
    Zr6    O459      1.07726      .   S
    Zr160  O460      0.66715      .   S
    Zr281  O460      0.66715      .   S
    Zr161  O461      0.66705  1_565   S
    Zr280  O461      0.66705      .   S
    Zr162  O462      0.66716      .   S
    Zr283  O462      0.66716      .   S
    Zr163  O463      0.66705  1_565   S
    Zr282  O463      0.66705      .   S
    Zr144  O464      0.66711      .   S
    Zr256  O464      0.66711      .   S
    Zr145  O465      0.66710      .   S
    Zr257  O465      0.66710      .   S
    Zr146  O466      0.66711      .   S
    Zr258  O466      0.66711      .   S
    Zr147  O467      0.66710      .   S
    Zr259  O467      0.66710      .   S
    Zr344  O468      1.12475      .   S
    Zr8    O468      1.12475      .   S
    Zr347  O469      1.12475      .   S
    Zr11   O469      1.12475      .   S
    Zr346  O470      1.12475      .   S
    Zr10   O470      1.12475      .   S
    Zr345  O471      1.12475      .   S
    Zr9    O471      1.12475      .   S
    Zr164  O472      0.54201      .   S
    Zr68   O472      0.54201      .   S
    Zr164  O473      0.66477      .   S
    Zr273  O473      0.66477      .   S
    Zr165  O474      0.54201      .   S
    Zr69   O474      0.54201      .   S
    Zr165  O475      0.66468  1_565   S
    Zr272  O475      0.66468      .   S
    Zr148  O476      0.54203      .   S
    Zr52   O476      0.54203      .   S
    Zr148  O477      0.66477      .   S
    Zr248  O477      0.66477      .   S
    Zr166  O478      0.54201      .   S
    Zr70   O478      0.54201      .   S
    Zr166  O479      0.66477      .   S
    Zr275  O479      0.66477      .   S
    Zr167  O480      0.54201      .   S
    Zr71   O480      0.54201      .   S
    Zr167  O481      0.66468  1_565   S
    Zr274  O481      0.66468      .   S
    Zr149  O482      0.54203      .   S
    Zr53   O482      0.54203      .   S
    Zr149  O483      0.66477      .   S
    Zr249  O483      0.66477      .   S
    Zr150  O484      0.54202      .   S
    Zr54   O484      0.54202      .   S
    Zr150  O485      0.66477      .   S
    Zr250  O485      0.66477      .   S
    Zr151  O486      0.54202      .   S
    Zr55   O486      0.54202      .   S
    Zr151  O487      0.66477      .   S
    Zr251  O487      0.66477      .   S
    Zr256  O488      0.68954      .   S
    Zr248  O488      0.68954      .   S
    Zr256  O489      1.08575      .   S
    Zr4    O489      1.08575      .   S
    Zr259  O490      0.68954      .   S
    Zr251  O490      0.68954      .   S
    Zr259  O491      1.08576      .   S
    Zr7    O491      1.08576      .   S
    Zr258  O492      0.68954      .   S
    Zr250  O492      0.68954      .   S
    Zr258  O493      1.08575      .   S
    Zr6    O493      1.08575      .   S
    Zr257  O494      0.68954      .   S
    Zr249  O494      0.68954      .   S
    Zr257  O495      1.08575      .   S
    Zr5    O495      1.08575      .   S
    Zr283  O496      0.68953      .   S
    Zr275  O496      0.68953      .   S
    Zr283  O497      1.08572      .   S
    Zr7    O497      1.08572      .   S
    Zr280  O498      0.68953      .   S
    Zr272  O498      0.68953      .   S
    Zr280  O499      1.08572      .   S
    Zr4    O499      1.08572      .   S
    Zr282  O500      0.68953      .   S
    Zr274  O500      0.68953      .   S
    Zr282  O501      1.08572      .   S
    Zr6    O501      1.08572      .   S
    Zr281  O502      0.68953      .   S
    Zr273  O502      0.68953      .   S
    Zr281  O503      1.08572      .   S
    Zr5    O503      1.08572      .   S
    Zr273  O504      1.10255      .   S
    Zr9    O504      1.10255      .   S
    Zr274  O505      1.10255      .   S
    Zr10   O505      1.10255      .   S
    Zr272  O506      1.10255      .   S
    Zr8    O506      1.10255      .   S
    Zr251  O507      1.10255      .   S
    Zr11   O507      1.10255      .   S
    Zr250  O508      1.10255      .   S
    Zr10   O508      1.10255      .   S
    Zr249  O509      1.10255      .   S
    Zr9    O509      1.10255      .   S
    Zr248  O510      1.10255      .   S
    Zr8    O510      1.10255      .   S
    Zr275  O511      1.10255      .   S
    Zr11   O511      1.10255      .   S
    Zr4    O512      1.09865  1_455   S
    Zr238  O512      1.09865      .   S
    Zr4    O513      1.09865  1_455   S
    Zr310  O513      1.09865      .   S
    Zr4    O514      1.12818      .   S
    Zr332  O514      1.12818      .   S
    Zr5    O515      1.09865  1_455   S
    Zr239  O515      1.09865      .   S
    Zr5    O516      1.09865  1_455   S
    Zr311  O516      1.09865      .   S
    Zr5    O517      1.12818      .   S
    Zr333  O517      1.12818      .   S
    Zr6    O518      1.09866      .   S
    Zr236  O518      1.09866      .   S
    Zr6    O519      1.09865      .   S
    Zr308  O519      1.09865      .   S
    Zr6    O520      1.12818      .   S
    Zr334  O520      1.12818      .   S
    Zr7    O521      1.09866      .   S
    Zr237  O521      1.09866      .   S
    Zr7    O522      1.09865      .   S
    Zr309  O522      1.09865      .   S
    Zr7    O523      1.12818      .   S
    Zr335  O523      1.12818      .   S
    Zr8    O524      1.08464      .   S
    Zr316  O524      1.08464      .   S
    Zr8    O525      1.08464      .   S
    Zr244  O525      1.08464      .   S
    Zr8    O526      1.08095      .   S
    Zr336  O526      1.08095      .   S
    Zr9    O527      1.08465      .   S
    Zr317  O527      1.08465      .   S
    Zr9    O528      1.08464      .   S
    Zr245  O528      1.08464      .   S
    Zr9    O529      1.08095      .   S
    Zr337  O529      1.08095      .   S
    Zr10   O530      1.08463      .   S
    Zr246  O530      1.08463      .   S
    Zr10   O531      1.08464      .   S
    Zr318  O531      1.08464      .   S
    Zr10   O532      1.08095      .   S
    Zr338  O532      1.08095      .   S
    Zr11   O533      1.08463      .   S
    Zr247  O533      1.08463      .   S
    Zr11   O534      1.08464      .   S
    Zr319  O534      1.08464      .   S
    Zr11   O535      1.08095      .   S
    Zr339  O535      1.08095      .   S
    Zr236  O536      0.68939      .   S
    Zr244  O536      0.68939      .   S
    Zr236  O537      0.66465      .   S
    Zr141  O537      0.66465  1_565   S
    Zr237  O538      0.68939      .   S
    Zr245  O538      0.68939      .   S
    Zr237  O539      0.66474      .   S
    Zr140  O539      0.66474      .   S
    Zr238  O540      0.68940      .   S
    Zr246  O540      0.68940      .   S
    Zr238  O541      0.66465      .   S
    Zr143  O541      0.66465  1_565   S
    Zr239  O542      0.68940      .   S
    Zr247  O542      0.68940      .   S
    Zr239  O543      0.66474      .   S
    Zr142  O543      0.66474      .   S
    Zr308  O544      0.68939      .   S
    Zr316  O544      0.68939      .   S
    Zr308  O545      0.66474      .   S
    Zr188  O545      0.66474      .   S
    Zr309  O546      0.68939      .   S
    Zr317  O546      0.68939      .   S
    Zr309  O547      0.66474      .   S
    Zr189  O547      0.66474      .   S
    Zr310  O548      0.68939      .   S
    Zr318  O548      0.68939      .   S
    Zr310  O549      0.66474      .   S
    Zr190  O549      0.66474      .   S
    Zr311  O550      0.68939      .   S
    Zr319  O550      0.68939      .   S
    Zr311  O551      0.66474      .   S
    Zr191  O551      0.66474      .   S
    Zr246  O552      0.66713      .   S
    Zr139  O552      0.66713  1_565   S
    Zr247  O553      0.66723      .   S
    Zr138  O553      0.66723      .   S
    Zr316  O554      0.66724      .   S
    Zr184  O554      0.66724      .   S
    Zr244  O555      0.66713      .   S
    Zr137  O555      0.66713  1_565   S
    Zr319  O556      0.66723      .   S
    Zr187  O556      0.66723      .   S
    Zr318  O557      0.66724      .   S
    Zr186  O557      0.66724      .   S
    Zr317  O558      0.66723      .   S
    Zr185  O558      0.66723      .   S
    Zr245  O559      0.66723      .   S
    Zr136  O559      0.66723      .   S
    Zr95   O560      0.54202      .   S
    Zr189  O560      0.54202      .   S
    Zr92   O561      0.54200  1_455   S
    Zr190  O561      0.54200      .   S
    Zr93   O562      0.54200  1_455   S
    Zr191  O562      0.54200      .   S
    Zr94   O563      0.54202      .   S
    Zr188  O563      0.54202      .   S
    Zr44   O564      0.54200  1_455   S
    Zr142  O564      0.54200      .   S
    Zr45   O565      0.54200  1_455   S
    Zr143  O565      0.54200      .   S
    Zr46   O566      0.54201      .   S
    Zr140  O566      0.54201      .   S
    Zr47   O567      0.54201      .   S
    Zr141  O567      0.54201      .   S
    Zr140  O568      0.67964      .   S
    Zr240  O568      0.67964      .   S
    Zr141  O569      0.67964      .   S
    Zr241  O569      0.67964      .   S
    Zr142  O570      0.67964      .   S
    Zr242  O570      0.67964      .   S
    Zr143  O571      0.67963      .   S
    Zr243  O571      0.67963      .   S
    Zr189  O572      0.67964      .   S
    Zr313  O572      0.67964      .   S
    Zr190  O573      0.67964      .   S
    Zr314  O573      0.67964      .   S
    Zr191  O574      0.67964      .   S
    Zr315  O574      0.67964      .   S
    Zr188  O575      0.67963      .   S
    Zr312  O575      0.67963      .   S
    Zr335  O576      0.68978      .   S
    Zr339  O576      0.68978      .   S
    Zr335  O577      0.66405      .   S
    Zr203  O577      0.66405      .   S
    Zr334  O578      0.68978      .   S
    Zr338  O578      0.68978      .   S
    Zr334  O579      0.66405      .   S
    Zr202  O579      0.66405      .   S
    Zr333  O580      0.68979      .   S
    Zr337  O580      0.68979      .   S
    Zr333  O581      0.66404      .   S
    Zr201  O581      0.66404      .   S
    Zr332  O582      0.68978      .   S
    Zr336  O582      0.68978      .   S
    Zr332  O583      0.66405      .   S
    Zr200  O583      0.66405      .   S
    Zr184  O584      0.68054      .   S
    Zr312  O584      0.68054      .   S
    Zr184  O585      0.54277      .   S
    Zr88   O585      0.54277      .   S
    Zr136  O586      0.68055      .   S
    Zr240  O586      0.68055      .   S
    Zr136  O587      0.54278      .   S
    Zr40   O587      0.54278      .   S
    Zr137  O588      0.68055      .   S
    Zr241  O588      0.68055      .   S
    Zr137  O589      0.54278      .   S
    Zr41   O589      0.54278      .   S
    Zr138  O590      0.68055      .   S
    Zr242  O590      0.68055      .   S
    Zr138  O591      0.54278      .   S
    Zr42   O591      0.54278      .   S
    Zr139  O592      0.68055      .   S
    Zr243  O592      0.68055      .   S
    Zr139  O593      0.54278      .   S
    Zr43   O593      0.54278      .   S
    Zr185  O594      0.68055      .   S
    Zr313  O594      0.68055      .   S
    Zr185  O595      0.54277      .   S
    Zr89   O595      0.54277      .   S
    Zr186  O596      0.68054      .   S
    Zr314  O596      0.68054      .   S
    Zr186  O597      0.54277      .   S
    Zr90   O597      0.54277      .   S
    Zr187  O598      0.68055      .   S
    Zr315  O598      0.68055      .   S
    Zr187  O599      0.54277      .   S
    Zr91   O599      0.54277      .   S
    Zr336  O600      0.66759      .   S
    Zr204  O600      0.66759      .   S
    Zr337  O601      0.66759      .   S
    Zr205  O601      0.66759      .   S
    Zr338  O602      0.66759      .   S
    Zr206  O602      0.66759      .   S
    Zr339  O603      0.66759      .   S
    Zr207  O603      0.66759      .   S
    Zr313  O604      1.01707      .   S
    Zr21   O604      1.01707      .   S
    Zr312  O605      1.01707      .   S
    Zr20   O605      1.01707      .   S
    Zr314  O606      1.01707      .   S
    Zr22   O606      1.01707      .   S
    Zr315  O607      1.01707      .   S
    Zr23   O607      1.01707      .   S
    Zr242  O608      1.01707      .   S
    Zr22   O608      1.01707      .   S
    Zr240  O609      1.01707      .   S
    Zr20   O609      1.01707      .   S
    Zr241  O610      1.01707      .   S
    Zr21   O610      1.01707      .   S
    Zr243  O611      1.01707      .   S
    Zr23   O611      1.01707      .   S
    Zr201  O612      0.54204      .   S
    Zr107  O612      0.54204  1_655   S
    Zr201  O613      0.67982      .   S
    Zr341  O613      0.67982      .   S
    Zr203  O614      0.54205      .   S
    Zr105  O614      0.54205      .   S
    Zr203  O615      0.67983      .   S
    Zr343  O615      0.67983      .   S
    Zr202  O616      0.54205      .   S
    Zr104  O616      0.54205      .   S
    Zr202  O617      0.67983      .   S
    Zr342  O617      0.67983      .   S
    Zr200  O618      0.54204      .   S
    Zr106  O618      0.54204  1_655   S
    Zr200  O619      0.67982      .   S
    Zr340  O619      0.67982      .   S
    Zr23   O620      1.14072  1_655   S
    Zr373  O620      1.14072      .   S
    Zr23   O621      1.01094      .   S
    Zr367  O621      1.01094      .   S
    Zr20   O622      1.14072      .   S
    Zr374  O622      1.14072      .   S
    Zr20   O623      1.01095      .   S
    Zr364  O623      1.01095      .   S
    Zr21   O624      1.14072      .   S
    Zr375  O624      1.14072      .   S
    Zr21   O625      1.01095      .   S
    Zr365  O625      1.01095      .   S
    Zr22   O626      1.14072  1_655   S
    Zr372  O626      1.14072      .   S
    Zr22   O627      1.01094      .   S
    Zr366  O627      1.01094      .   S
    Zr205  O628      0.54338      .   S
    Zr109  O628      0.54338      .   S
    Zr205  O629      0.68136      .   S
    Zr341  O629      0.68136      .   S
    Zr206  O630      0.54339      .   S
    Zr110  O630      0.54339      .   S
    Zr206  O631      0.68135      .   S
    Zr342  O631      0.68135      .   S
    Zr207  O632      0.54339      .   S
    Zr111  O632      0.54339      .   S
    Zr207  O633      0.68135      .   S
    Zr343  O633      0.68135      .   S
    Zr204  O634      0.54338      .   S
    Zr108  O634      0.54338      .   S
    Zr204  O635      0.68136      .   S
    Zr340  O635      0.68136      .   S
    Zr343  O636      1.01095      .   S
    Zr31   O636      1.01095      .   S
    Zr342  O637      1.01095      .   S
    Zr30   O637      1.01095      .   S
    Zr341  O638      1.01094      .   S
    Zr29   O638      1.01094      .   S
    Zr340  O639      1.01094      .   S
    Zr28   O639      1.01094      .   S
    Zr364  O640      0.68135      .   S
    Zr220  O640      0.68135      .   S
    Zr364  O641      0.67983      .   S
    Zr216  O641      0.67983      .   S
    Zr365  O642      0.68135      .   S
    Zr221  O642      0.68135      .   S
    Zr365  O643      0.67982      .   S
    Zr217  O643      0.67982      .   S
    Zr366  O644      0.68136      .   S
    Zr222  O644      0.68136      .   S
    Zr366  O645      0.67982      .   S
    Zr218  O645      0.67982      .   S
    Zr367  O646      0.68136      .   S
    Zr223  O646      0.68136      .   S
    Zr367  O647      0.67982      .   S
    Zr219  O647      0.67982      .   S
    Zr125  O648      0.54339      .   S
    Zr221  O648      0.54339      .   S
    Zr124  O649      0.54339      .   S
    Zr220  O649      0.54339      .   S
    Zr126  O650      0.54338      .   S
    Zr222  O650      0.54338      .   S
    Zr127  O651      0.54338      .   S
    Zr223  O651      0.54338      .   S
    Zr223  O652      0.66759      .   S
    Zr363  O652      0.66759      .   S
    Zr220  O653      0.66759      .   S
    Zr360  O653      0.66759      .   S
    Zr221  O654      0.66759      .   S
    Zr361  O654      0.66759      .   S
    Zr222  O655      0.66759      .   S
    Zr362  O655      0.66759      .   S
    Zr383  O656      1.14072      .   S
    Zr29   O656      1.14072  1_455   S
    Zr380  O657      1.14073      .   S
    Zr30   O657      1.14073      .   S
    Zr381  O658      1.14073      .   S
    Zr31   O658      1.14073      .   S
    Zr382  O659      1.14072      .   S
    Zr28   O659      1.14072  1_455   S
    Zr123  O660      0.54206      .   S
    Zr217  O660      0.54206      .   S
    Zr122  O661      0.54205      .   S
    Zr216  O661      0.54205      .   S
    Zr121  O662      0.54204  1_455   S
    Zr219  O662      0.54204      .   S
    Zr120  O663      0.54204  1_455   S
    Zr218  O663      0.54204      .   S
    Zr29   O664      1.01707      .   S
    Zr265  O664      1.01707      .   S
    Zr29   O665      1.01707      .   S
    Zr289  O665      1.01707      .   S
    Zr30   O666      1.01707      .   S
    Zr266  O666      1.01707      .   S
    Zr30   O667      1.01707      .   S
    Zr290  O667      1.01707      .   S
    Zr31   O668      1.01707      .   S
    Zr267  O668      1.01707      .   S
    Zr31   O669      1.01707      .   S
    Zr291  O669      1.01707      .   S
    Zr28   O670      1.01707      .   S
    Zr264  O670      1.01707      .   S
    Zr28   O671      1.01707      .   S
    Zr288  O671      1.01707      .   S
    Zr218  O672      0.66404      .   S
    Zr358  O672      0.66404      .   S
    Zr219  O673      0.66404      .   S
    Zr359  O673      0.66404      .   S
    Zr217  O674      0.66404      .   S
    Zr357  O674      0.66404      .   S
    Zr216  O675      0.66405      .   S
    Zr356  O675      0.66405      .   S
    Zr75   O676      0.54278      .   S
    Zr171  O676      0.54278      .   S
    Zr74   O677      0.54278      .   S
    Zr170  O677      0.54278      .   S
    Zr73   O678      0.54278      .   S
    Zr169  O678      0.54278      .   S
    Zr72   O679      0.54278      .   S
    Zr168  O679      0.54278      .   S
    Zr56   O680      0.54277      .   S
    Zr152  O680      0.54277      .   S
    Zr59   O681      0.54277      .   S
    Zr155  O681      0.54277      .   S
    Zr58   O682      0.54277      .   S
    Zr154  O682      0.54277      .   S
    Zr57   O683      0.54277      .   S
    Zr153  O683      0.54277      .   S
    Zr264  O684      0.68054      .   S
    Zr152  O684      0.68054      .   S
    Zr264  O685      0.67964      .   S
    Zr156  O685      0.67964      .   S
    Zr267  O686      0.68054      .   S
    Zr155  O686      0.68054      .   S
    Zr267  O687      0.67963      .   S
    Zr159  O687      0.67963      .   S
    Zr266  O688      0.68054      .   S
    Zr154  O688      0.68054      .   S
    Zr266  O689      0.67963      .   S
    Zr158  O689      0.67963      .   S
    Zr265  O690      0.68054      .   S
    Zr153  O690      0.68054      .   S
    Zr265  O691      0.67964      .   S
    Zr157  O691      0.67964      .   S
    Zr289  O692      0.68055      .   S
    Zr169  O692      0.68055      .   S
    Zr289  O693      0.67964      .   S
    Zr173  O693      0.67964      .   S
    Zr290  O694      0.68054      .   S
    Zr170  O694      0.68054      .   S
    Zr290  O695      0.67964      .   S
    Zr174  O695      0.67964      .   S
    Zr291  O696      0.68054      .   S
    Zr171  O696      0.68054      .   S
    Zr291  O697      0.67964      .   S
    Zr175  O697      0.67964      .   S
    Zr288  O698      0.68055      .   S
    Zr168  O698      0.68055      .   S
    Zr288  O699      0.67964      .   S
    Zr172  O699      0.67964      .   S
    Zr363  O700      0.68979      .   S
    Zr359  O700      0.68979      .   S
    Zr363  O701      1.08095      .   S
    Zr3    O701      1.08095      .   S
    Zr361  O702      0.68978      .   S
    Zr357  O702      0.68978      .   S
    Zr361  O703      1.08095      .   S
    Zr1    O703      1.08095      .   S
    Zr362  O704      0.68979      .   S
    Zr358  O704      0.68979      .   S
    Zr362  O705      1.08095      .   S
    Zr2    O705      1.08095      .   S
    Zr360  O706      0.68978      .   S
    Zr356  O706      0.68978      .   S
    Zr360  O707      1.08095      .   S
    Zr0    O707      1.08095      .   S
    Zr155  O708      0.66724      .   S
    Zr271  O708      0.66724      .   S
    Zr154  O709      0.66723      .   S
    Zr270  O709      0.66723      .   S
    Zr153  O710      0.66724      .   S
    Zr269  O710      0.66724      .   S
    Zr152  O711      0.66724      .   S
    Zr268  O711      0.66724      .   S
    Zr171  O712      0.66723      .   S
    Zr294  O712      0.66723      .   S
    Zr168  O713      0.66713  1_545   S
    Zr293  O713      0.66713      .   S
    Zr169  O714      0.66723      .   S
    Zr292  O714      0.66723      .   S
    Zr170  O715      0.66713  1_545   S
    Zr295  O715      0.66713      .   S
    Zr357  O716      1.12811      .   S
    Zr13   O716      1.12811      .   S
    Zr358  O717      1.12811      .   S
    Zr14   O717      1.12811      .   S
    Zr359  O718      1.12811      .   S
    Zr15   O718      1.12811      .   S
    Zr356  O719      1.12811      .   S
    Zr12   O719      1.12811      .   S
    Zr157  O720      0.54200      .   S
    Zr63   O720      0.54200  1_655   S
    Zr157  O721      0.66474      .   S
    Zr261  O721      0.66474      .   S
    Zr174  O722      0.54201      .   S
    Zr76   O722      0.54201      .   S
    Zr174  O723      0.66465  1_545   S
    Zr287  O723      0.66465      .   S
    Zr173  O724      0.54200      .   S
    Zr79   O724      0.54200  1_655   S
    Zr173  O725      0.66474      .   S
    Zr284  O725      0.66474      .   S
    Zr172  O726      0.54200      .   S
    Zr78   O726      0.54200  1_655   S
    Zr172  O727      0.66465  1_545   S
    Zr285  O727      0.66465      .   S
    Zr159  O728      0.54201      .   S
    Zr61   O728      0.54201      .   S
    Zr159  O729      0.66474      .   S
    Zr263  O729      0.66474      .   S
    Zr158  O730      0.54202      .   S
    Zr60   O730      0.54202      .   S
    Zr158  O731      0.66474      .   S
    Zr262  O731      0.66474      .   S
    Zr156  O732      0.54200      .   S
    Zr62   O732      0.54200  1_655   S
    Zr156  O733      0.66474      .   S
    Zr260  O733      0.66474      .   S
    Zr175  O734      0.54201      .   S
    Zr77   O734      0.54201      .   S
    Zr175  O735      0.66474      .   S
    Zr286  O735      0.66474      .   S
    Zr269  O736      0.68939      .   S
    Zr261  O736      0.68939      .   S
    Zr269  O737      1.08464      .   S
    Zr1    O737      1.08464      .   S
    Zr292  O738      0.68940      .   S
    Zr284  O738      0.68940      .   S
    Zr292  O739      1.08464      .   S
    Zr0    O739      1.08464      .   S
    Zr293  O740      0.68940      .   S
    Zr285  O740      0.68940      .   S
    Zr293  O741      1.08463      .   S
    Zr1    O741      1.08463      .   S
    Zr271  O742      0.68938      .   S
    Zr263  O742      0.68938      .   S
    Zr271  O743      1.08465      .   S
    Zr3    O743      1.08465      .   S
    Zr270  O744      0.68939      .   S
    Zr262  O744      0.68939      .   S
    Zr270  O745      1.08464      .   S
    Zr2    O745      1.08464      .   S
    Zr268  O746      0.68939      .   S
    Zr260  O746      0.68939      .   S
    Zr268  O747      1.08464      .   S
    Zr0    O747      1.08464      .   S
    Zr294  O748      0.68939      .   S
    Zr286  O748      0.68939      .   S
    Zr294  O749      1.08465      .   S
    Zr2    O749      1.08465      .   S
    Zr295  O750      0.68939      .   S
    Zr287  O750      0.68939      .   S
    Zr295  O751      1.08464      .   S
    Zr3    O751      1.08464      .   S
    Zr284  O752      1.09861      .   S
    Zr14   O752      1.09861  1_655   S
    Zr261  O753      1.09861      .   S
    Zr15   O753      1.09861  1_655   S
    Zr287  O754      1.09861      .   S
    Zr13   O754      1.09861      .   S
    Zr286  O755      1.09862      .   S
    Zr12   O755      1.09862      .   S
    Zr285  O756      1.09861      .   S
    Zr15   O756      1.09861  1_655   S
    Zr260  O757      1.09860      .   S
    Zr14   O757      1.09860  1_655   S
    Zr263  O758      1.09862      .   S
    Zr13   O758      1.09862      .   S
    Zr262  O759      1.09861      .   S
    Zr12   O759      1.09861      .   S
    Zr1    O760      1.10224      .   S
    Zr225  O760      1.10224      .   S
    Zr1    O761      1.10252      .   S
    Zr297  O761      1.10252      .   S
    Zr1    O762      1.12475      .   S
    Zr321  O762      1.12475      .   S
    Zr0    O763      1.10224      .   S
    Zr224  O763      1.10224      .   S
    Zr0    O764      1.10251      .   S
    Zr296  O764      1.10251      .   S
    Zr0    O765      1.12475      .   S
    Zr320  O765      1.12475      .   S
    Zr2    O766      1.10224      .   S
    Zr226  O766      1.10224      .   S
    Zr2    O767      1.10251      .   S
    Zr298  O767      1.10251      .   S
    Zr2    O768      1.12475      .   S
    Zr322  O768      1.12475      .   S
    Zr3    O769      1.10224      .   S
    Zr227  O769      1.10224      .   S
    Zr3    O770      1.10252      .   S
    Zr299  O770      1.10252      .   S
    Zr3    O771      1.12475      .   S
    Zr323  O771      1.12475      .   S
    Zr12   O772      1.08552      .   S
    Zr304  O772      1.08552      .   S
    Zr12   O773      1.08576      .   S
    Zr232  O773      1.08576      .   S
    Zr12   O774      1.07733      .   S
    Zr326  O774      1.07733      .   S
    Zr13   O775      1.08576      .   S
    Zr305  O775      1.08576      .   S
    Zr13   O776      1.08575      .   S
    Zr233  O776      1.08575      .   S
    Zr13   O777      1.07733      .   S
    Zr327  O777      1.07733      .   S
    Zr14   O778      1.08576      .   S
    Zr234  O778      1.08576      .   S
    Zr14   O779      1.08575      .   S
    Zr306  O779      1.08575      .   S
    Zr14   O780      1.07732  1_655   S
    Zr324  O780      1.07732      .   S
    Zr15   O781      1.08575      .   S
    Zr307  O781      1.08575      .   S
    Zr15   O782      1.08574      .   S
    Zr235  O782      1.08574      .   S
    Zr15   O783      1.07733  1_655   S
    Zr325  O783      1.07733      .   S
    Zr225  O784      0.68968      .   S
    Zr233  O784      0.68968      .   S
    Zr225  O785      0.66471      .   S
    Zr132  O785      0.66471  1_545   S
    Zr224  O786      0.68968      .   S
    Zr232  O786      0.68968      .   S
    Zr224  O787      0.66481      .   S
    Zr133  O787      0.66481      .   S
    Zr226  O788      0.68968      .   S
    Zr234  O788      0.68968      .   S
    Zr226  O789      0.66481      .   S
    Zr135  O789      0.66481      .   S
    Zr227  O790      0.68968      .   S
    Zr235  O790      0.68968      .   S
    Zr227  O791      0.66471      .   S
    Zr134  O791      0.66471  1_545   S
    Zr296  O792      0.68941      .   S
    Zr304  O792      0.68941      .   S
    Zr296  O793      0.66453      .   S
    Zr180  O793      0.66453      .   S
    Zr297  O794      0.68954      .   S
    Zr305  O794      0.68954      .   S
    Zr297  O795      0.66453      .   S
    Zr181  O795      0.66453      .   S
    Zr298  O796      0.68954      .   S
    Zr306  O796      0.68954      .   S
    Zr298  O797      0.66453      .   S
    Zr182  O797      0.66453      .   S
    Zr299  O798      0.68954      .   S
    Zr307  O798      0.68954      .   S
    Zr299  O799      0.66453      .   S
    Zr183  O799      0.66453      .   S
    Zr304  O800      0.66751      .   S
    Zr176  O800      0.66751      .   S
    Zr234  O801      0.66716      .   S
    Zr131  O801      0.66716      .   S
    Zr307  O802      0.66715      .   S
    Zr179  O802      0.66715      .   S
    Zr306  O803      0.66716      .   S
    Zr178  O803      0.66716      .   S
    Zr305  O804      0.66715      .   S
    Zr177  O804      0.66715      .   S
    Zr235  O805      0.66706      .   S
    Zr130  O805      0.66706  1_545   S
    Zr233  O806      0.66706      .   S
    Zr128  O806      0.66706  1_545   S
    Zr232  O807      0.66716      .   S
    Zr129  O807      0.66716      .   S
    Zr84   O808      0.54201      .   S
    Zr180  O808      0.54201      .   S
    Zr87   O809      0.54201      .   S
    Zr183  O809      0.54201      .   S
    Zr86   O810      0.54201      .   S
    Zr182  O810      0.54201      .   S
    Zr85   O811      0.54201      .   S
    Zr181  O811      0.54201      .   S
    Zr39   O812      0.54201      .   S
    Zr135  O812      0.54201      .   S
    Zr38   O813      0.54201      .   S
    Zr134  O813      0.54201      .   S
    Zr37   O814      0.54201      .   S
    Zr133  O814      0.54201      .   S
    Zr36   O815      0.54201      .   S
    Zr132  O815      0.54201      .   S
    Zr181  O816      0.68005      .   S
    Zr301  O816      0.68005      .   S
    Zr180  O817      0.68005      .   S
    Zr300  O817      0.68005      .   S
    Zr135  O818      0.68006      .   S
    Zr231  O818      0.68006      .   S
    Zr134  O819      0.68006      .   S
    Zr230  O819      0.68006      .   S
    Zr133  O820      0.68006      .   S
    Zr229  O820      0.68006      .   S
    Zr132  O821      0.68006      .   S
    Zr228  O821      0.68006      .   S
    Zr182  O822      0.68005      .   S
    Zr302  O822      0.68005      .   S
    Zr183  O823      0.68005      .   S
    Zr303  O823      0.68005      .   S
    Zr322  O824      0.68963      .   S
    Zr326  O824      0.68963      .   S
    Zr322  O825      0.66409      .   S
    Zr194  O825      0.66409      .   S
    Zr323  O826      0.68962      .   S
    Zr327  O826      0.68962      .   S
    Zr323  O827      0.66409      .   S
    Zr195  O827      0.66409      .   S
    Zr321  O828      0.68962      .   S
    Zr325  O828      0.68962      .   S
    Zr321  O829      0.66409      .   S
    Zr193  O829      0.66409      .   S
    Zr320  O830      0.68962      .   S
    Zr324  O830      0.68962      .   S
    Zr320  O831      0.66409      .   S
    Zr192  O831      0.66409      .   S
    Zr129  O832      0.68047      .   S
    Zr229  O832      0.68047      .   S
    Zr129  O833      0.54281      .   S
    Zr33   O833      0.54281      .   S
    Zr130  O834      0.68047      .   S
    Zr230  O834      0.68047      .   S
    Zr130  O835      0.54281      .   S
    Zr34   O835      0.54281      .   S
    Zr131  O836      0.68047      .   S
    Zr231  O836      0.68047      .   S
    Zr131  O837      0.54281      .   S
    Zr35   O837      0.54281      .   S
    Zr128  O838      0.68047      .   S
    Zr228  O838      0.68047      .   S
    Zr128  O839      0.54281      .   S
    Zr32   O839      0.54281      .   S
    Zr176  O840      0.68048      .   S
    Zr300  O840      0.68048      .   S
    Zr176  O841      0.54280      .   S
    Zr80   O841      0.54280      .   S
    Zr177  O842      0.68048      .   S
    Zr301  O842      0.68048      .   S
    Zr177  O843      0.54280      .   S
    Zr81   O843      0.54280      .   S
    Zr179  O844      0.68047      .   S
    Zr303  O844      0.68047      .   S
    Zr179  O845      0.54280      .   S
    Zr83   O845      0.54280      .   S
    Zr178  O846      0.68047      .   S
    Zr302  O846      0.68047      .   S
    Zr178  O847      0.54281      .   S
    Zr82   O847      0.54281      .   S
    Zr327  O848      0.66746      .   S
    Zr199  O848      0.66746      .   S
    Zr326  O849      0.66746      .   S
    Zr198  O849      0.66746      .   S
    Zr325  O850      0.66746      .   S
    Zr197  O850      0.66746      .   S
    Zr324  O851      0.66746      .   S
    Zr196  O851      0.66746      .   S
    Zr302  O852      1.01629      .   S
    Zr18   O852      1.01629      .   S
    Zr301  O853      1.01629      .   S
    Zr17   O853      1.01629      .   S
    Zr300  O854      1.01629      .   S
    Zr16   O854      1.01629      .   S
    Zr231  O855      1.01628      .   S
    Zr19   O855      1.01628      .   S
    Zr230  O856      1.01628      .   S
    Zr18   O856      1.01628      .   S
    Zr229  O857      1.01628      .   S
    Zr17   O857      1.01628      .   S
    Zr228  O858      1.01628      .   S
    Zr16   O858      1.01628      .   S
    Zr303  O859      1.01629      .   S
    Zr19   O859      1.01629      .   S
    Zr194  O860      0.54205      .   S
    Zr98   O860      0.54205      .   S
    Zr194  O861      0.67987      .   S
    Zr330  O861      0.67987      .   S
    Zr193  O862      0.54205      .   S
    Zr97   O862      0.54205      .   S
    Zr193  O863      0.67987      .   S
    Zr329  O863      0.67987      .   S
    Zr192  O864      0.54205      .   S
    Zr96   O864      0.54205      .   S
    Zr192  O865      0.67987      .   S
    Zr328  O865      0.67987      .   S
    Zr195  O866      0.54205      .   S
    Zr99   O866      0.54205      .   S
    Zr195  O867      0.67987      .   S
    Zr331  O867      0.67987      .   S
    Zr19   O868      1.14228      .   S
    Zr371  O868      1.14228      .   S
    Zr18   O869      1.14228      .   S
    Zr370  O869      1.14228      .   S
    Zr17   O870      1.14228      .   S
    Zr369  O870      1.14228      .   S
    Zr16   O871      1.14228      .   S
    Zr368  O871      1.14228      .   S
    Zr197  O872      0.54336      .   S
    Zr101  O872      0.54336      .   S
    Zr197  O873      0.68118      .   S
    Zr329  O873      0.68118      .   S
    Zr199  O874      0.54335      .   S
    Zr103  O874      0.54335      .   S
    Zr199  O875      0.68118      .   S
    Zr331  O875      0.68118      .   S
    Zr198  O876      0.54335      .   S
    Zr102  O876      0.54335      .   S
    Zr198  O877      0.68119      .   S
    Zr330  O877      0.68119      .   S
    Zr196  O878      0.54336      .   S
    Zr100  O878      0.54336      .   S
    Zr196  O879      0.68118      .   S
    Zr328  O879      0.68118      .   S
