# CIF file generated by openbabel 2.4.90, see http://openbabel.sf.net
data_I
_chemical_name_common ''
_cell_length_a 14.528
_cell_length_b 15.81
_cell_length_c 18.955
_cell_angle_alpha 90.014
_cell_angle_beta 90.794
_cell_angle_gamma 90.077
_space_group_name_H-M_alt 'P 1'
_space_group_name_Hall 'P 1'
loop_
    _symmetry_equiv_pos_as_xyz
    x,y,z
loop_
    _atom_site_label
    _atom_site_type_symbol
    _atom_site_fract_x
    _atom_site_fract_y
    _atom_site_fract_z
    _atom_site_occupancy
    H0      H    0.94873   0.65020   0.01641   1.000
    H1      H    0.88843   0.38414   0.01442   1.000
    H2      H    0.66367   0.73997   0.24359   1.000
    H3      H    0.39129   0.63306   0.24366   1.000
    H4      H    0.36461   0.69469   0.36301   1.000
    H5      H    0.63702   0.80171   0.36361   1.000
    H6      H    0.65282   0.49546   0.03483   1.000
    H7      H    0.05296   0.85278   0.51301   1.000
    H8      H    0.11172   0.11905   0.51679   1.000
    H9      H    0.34160   0.76022   0.73833   1.000
    H10     H    0.61236   0.87042   0.74634   1.000
    H11     H    0.63806   0.80965   0.86660   1.000
    H12     H    0.36712   0.69949   0.85935   1.000
    H13     H    0.35016   0.00787   0.53475   1.000
    H14     H    0.05220   0.35332   0.00000   1.000
    H15     H    0.11248   0.61939   0.98542   1.000
    H16     H    0.33791   0.26344   0.75723   1.000
    H17     H    0.61008   0.37071   0.75580   1.000
    H18     H    0.63584   0.30911   0.63632   1.000
    H19     H    0.36362   0.20169   0.63709   1.000
    H20     H    0.35047   0.50840   0.96510   1.000
    H21     H    0.94651   0.14994   0.48670   1.000
    H22     H    0.88770   0.88368   0.48294   1.000
    H23     H    0.66028   0.24089   0.26143   1.000
    H24     H    0.38845   0.13298   0.25285   1.000
    H25     H    0.36365   0.19431   0.13272   1.000
    H26     H    0.63554   0.30237   0.14061   1.000
    H27     H    0.64930   0.99579   0.46520   1.000
    H28     H    0.55165   0.15023   0.00000   1.000
    H29     H    0.61121   0.88421   0.98477   1.000
    H30     H    0.83626   0.23965   0.75676   1.000
    H31     H    0.10864   0.13335   0.75627   1.000
    H32     H    0.13497   0.19495   0.63684   1.000
    H33     H    0.86257   0.30139   0.63668   1.000
    H34     H    0.84731   0.99552   0.96517   1.000
    H35     H    0.44454   0.35324   0.48710   1.000
    H36     H    0.38683   0.61959   0.48291   1.000
    H37     H    0.15820   0.26368   0.26191   1.000
    H38     H    0.88616   0.37049   0.25228   1.000
    H39     H    0.86241   0.30918   0.13195   1.000
    H40     H    0.13452   0.20223   0.14087   1.000
    H41     H    0.14891   0.50794   0.46514   1.000
    H42     H    0.44738   0.85321   0.01568   1.000
    H43     H    0.38787   0.11926   0.01475   1.000
    H44     H    0.16131   0.76426   0.24266   1.000
    H45     H    0.88819   0.86890   0.24381   1.000
    H46     H    0.86270   0.80687   0.36319   1.000
    H47     H    0.13588   0.70220   0.36274   1.000
    H48     H    0.14951   0.00841   0.03496   1.000
    H49     H    0.55213   0.65042   0.51286   1.000
    H50     H    0.60987   0.38412   0.51697   1.000
    H51     H    0.83919   0.73998   0.73893   1.000
    H52     H    0.11132   0.63327   0.74703   1.000
    H53     H    0.13623   0.69456   0.86722   1.000
    H54     H    0.86405   0.80140   0.85982   1.000
    H55     H    0.84943   0.49531   0.53486   1.000
    C56     C    0.81074   0.53682   0.03453   1.000
    C57     C    0.90904   0.51903   0.01755   1.000
    C58     C    0.97216   0.58545   0.00913   1.000
    C59     C    0.93797   0.43521   0.00818   1.000
    C60     C    0.54109   0.65164   0.16310   1.000
    C61     C    0.52856   0.68388   0.23627   1.000
    C62     C    0.59864   0.73029   0.27033   1.000
    C63     C    0.44466   0.66995   0.27030   1.000
    C64     C    0.47925   0.79569   0.43803   1.000
    C65     C    0.49889   0.75270   0.36982   1.000
    C66     C    0.42985   0.70422   0.33660   1.000
    C67     C    0.58392   0.76447   0.33688   1.000
    C68     C    0.19087   0.96629   0.53325   1.000
    C69     C    0.09184   0.98408   0.51689   1.000
    C70     C    0.02882   0.91758   0.50714   1.000
    C71     C    0.06218   0.06799   0.50945   1.000
    C72     C    0.46341   0.85024   0.66148   1.000
    C73     C    0.47590   0.81797   0.73493   1.000
    C74     C    0.40605   0.77079   0.76701   1.000
    C75     C    0.55910   0.83297   0.77141   1.000
    C76     C    0.52349   0.70802   0.93872   1.000
    C77     C    0.50443   0.75019   0.86966   1.000
    C78     C    0.57336   0.79919   0.83829   1.000
    C79     C    0.42016   0.73717   0.83413   1.000
    C80     C    0.19029   0.46676   0.96549   1.000
    C81     C    0.09192   0.48449   0.98241   1.000
    C82     C    0.02879   0.41808   0.00000   1.000
    C83     C    0.06296   0.56832   0.99171   1.000
    O84     O    0.74179   0.00000   0.94752   1.000
    O85     O    0.95665   0.34029   0.53385   1.000
    O86     O    0.10117   0.28541   0.53726   1.000
    O87     O    0.90293   0.02219   0.99078   1.000
    C88     C    0.46115   0.35198   0.83711   1.000
    C89     C    0.47301   0.31970   0.76388   1.000
    C90     C    0.40270   0.27320   0.73018   1.000
    C91     C    0.55657   0.33373   0.72943   1.000
    C92     C    0.52084   0.20794   0.56189   1.000
    C93     C    0.50162   0.25088   0.63018   1.000
    C94     C    0.57086   0.29946   0.66305   1.000
    C95     C    0.41690   0.23900   0.66355   1.000
    C96     C    0.80859   0.03677   0.46669   1.000
    C97     C    0.90759   0.01867   0.48285   1.000
    C98     C    0.97064   0.08514   0.49256   1.000
    C99     C    0.93725   0.93475   0.49025   1.000
    C100    C    0.53732   0.15195   0.33811   1.000
    C101    C    0.52539   0.18426   0.26460   1.000
    C102    C    0.59577   0.23095   0.23267   1.000
    C103    C    0.44215   0.17006   0.22795   1.000
    C104    C    0.47910   0.29550   0.06101   1.000
    C105    C    0.49778   0.25282   0.12996   1.000
    C106    C    0.42838   0.20418   0.16113   1.000
    C107    C    0.58210   0.26498   0.16563   1.000
    C108    C    0.68934   0.03688   0.96541   1.000
    C109    C    0.59096   0.01906   0.98220   1.000
    C110    C    0.52805   0.08545   0.00000   1.000
    C111    C    0.56180   0.93522   0.99123   1.000
    C112    C    0.95890   0.15159   0.83696   1.000
    C113    C    0.97135   0.18384   0.76382   1.000
    C114    C    0.90119   0.23010   0.72989   1.000
    C115    C    0.05520   0.17008   0.72970   1.000
    C116    C    0.02016   0.29547   0.56202   1.000
    C117    C    0.00062   0.25259   0.63025   1.000
    C118    C    0.06981   0.20432   0.66336   1.000
    C119    C    0.91571   0.26426   0.66332   1.000
    C120    C    0.30696   0.46670   0.46672   1.000
    C121    C    0.40609   0.48454   0.48298   1.000
    C122    C    0.46891   0.41805   0.49281   1.000
    C123    C    0.43615   0.56847   0.49028   1.000
    C124    C    0.03446   0.35180   0.33808   1.000
    C125    C    0.02311   0.31967   0.26450   1.000
    C126    C    0.09390   0.27337   0.23285   1.000
    C127    C    0.94010   0.33366   0.22754   1.000
    C128    C    0.97840   0.20833   0.06089   1.000
    C129    C    0.00000   0.25121   0.12978   1.000
    C130    C    0.92694   0.29956   0.16064   1.000
    C131    C    0.08084   0.23937   0.16573   1.000
    C132    C    0.30976   0.96667   0.03444   1.000
    C133    C    0.40810   0.98440   0.01733   1.000
    C134    C    0.47099   0.91800   0.00861   1.000
    C135    C    0.43726   0.06823   0.00824   1.000
    C136    C    0.03792   0.85189   0.16282   1.000
    C137    C    0.02582   0.81927   0.23591   1.000
    C138    C    0.09639   0.77336   0.26966   1.000
    C139    C    0.94197   0.83242   0.27021   1.000
    C140    C    0.97857   0.70723   0.43787   1.000
    C141    C    0.00000   0.75009   0.36950   1.000
    C142    C    0.92783   0.79794   0.33654   1.000
    C143    C    0.08235   0.73900   0.33624   1.000
    C144    C    0.68975   0.53692   0.53321   1.000
    C145    C    0.59059   0.51914   0.51690   1.000
    C146    C    0.52777   0.58562   0.50709   1.000
    C147    C    0.56053   0.43521   0.50960   1.000
    C148    C    0.96235   0.65185   0.66194   1.000
    C149    C    0.97424   0.68401   0.73551   1.000
    C150    C    0.90379   0.73030   0.76760   1.000
    C151    C    0.05760   0.67008   0.77206   1.000
    C152    C    0.02080   0.79537   0.93906   1.000
    C153    C    0.00196   0.75252   0.87018   1.000
    C154    C    0.07143   0.70418   0.83890   1.000
    C155    C    0.91752   0.76431   0.83465   1.000
    O156    O    0.47247   0.61104   0.13584   1.000
    O157    O    0.61679   0.66687   0.13250   1.000
    O158    O    0.78588   0.61559   0.02799   1.000
    O159    O    0.75820   0.47731   0.05242   1.000
    O160    O    0.54298   0.84043   0.46620   1.000
    O161    O    0.39818   0.78576   0.46271   1.000
    O162    O    0.59723   0.52217   0.00925   1.000
    O163    O    0.53129   0.89238   0.63612   1.000
    O164    O    0.38831   0.83367   0.62896   1.000
    O165    O    0.21552   0.88769   0.52498   1.000
    O166    O    0.24386   0.02543   0.55222   1.000
    O167    O    0.45983   0.66337   0.96571   1.000
    O168    O    0.60434   0.71843   0.96544   1.000
    O169    O    0.40456   0.98130   0.50906   1.000
    O170    O    0.53011   0.39245   0.86409   1.000
    O171    O    0.38563   0.33688   0.86795   1.000
    O172    O    0.21507   0.38789   0.97209   1.000
    O173    O    0.24282   0.52618   0.94763   1.000
    O174    O    0.45700   0.16326   0.53381   1.000
    O175    O    0.60182   0.21792   0.53703   1.000
    O176    O    0.40555   0.48141   0.99063   1.000
    O177    O    0.46857   0.11131   0.36377   1.000
    O178    O    0.61291   0.16710   0.37045   1.000
    O179    O    0.78440   0.11546   0.47513   1.000
    O180    O    0.75517   0.00000   0.44777   1.000
    O181    O    0.54303   0.34014   0.03433   1.000
    O182    O    0.39830   0.28541   0.03416   1.000
    O183    O    0.59492   0.02236   0.49098   1.000
    O184    O    0.02750   0.11105   0.86419   1.000
    O185    O    0.88323   0.16677   0.86755   1.000
    O186    O    0.71437   0.11567   0.97208   1.000
    O187    O    0.96564   0.39228   0.36370   1.000
    O188    O    0.10983   0.33657   0.37060   1.000
    O189    O    0.28196   0.38820   0.47504   1.000
    O190    O    0.25410   0.52584   0.44770   1.000
    O191    O    0.04226   0.16355   0.03436   1.000
    O192    O    0.89772   0.21838   0.03390   1.000
    O193    O    0.09409   0.48152   0.49084   1.000
    O194    O    0.96910   0.89245   0.13586   1.000
    O195    O    0.11352   0.83700   0.13207   1.000
    O196    O    0.28482   0.88775   0.02798   1.000
    O197    O    0.25742   0.02607   0.05239   1.000
    O198    O    0.04276   0.66325   0.46614   1.000
    O199    O    0.89750   0.71658   0.46263   1.000
    O200    O    0.09446   0.98141   0.00936   1.000
    O201    O    0.03113   0.61135   0.63624   1.000
    O202    O    0.88687   0.66705   0.62956   1.000
    O203    O    0.71474   0.61547   0.52485   1.000
    O204    O    0.74252   0.47783   0.55229   1.000
    O205    O    0.95695   0.84003   0.96570   1.000
    O206    O    0.10159   0.78537   0.96589   1.000
    O207    O    0.90376   0.52205   0.50919   1.000
loop_
    _geom_bond_atom_site_label_1
    _geom_bond_atom_site_label_2
    _geom_bond_distance
    _geom_bond_site_symmetry_2
    _ccdc_geom_bond_type
    H14    C82       1.07929      .   S
    H28    C110      1.07968      .   S
    C110   C135      1.35766      .   S
    C110   C109      1.43590  1_554   S
    C82    C59       1.35820  1_455   S
    C82    C81       1.43561  1_554   S
    C59    H1        1.08843      .   S
    C59    C57       1.40279      .   S
    C135   H43       1.08845      .   S
    C135   C133      1.40222  1_545   S
    C134   H42       1.08868      .   S
    C134   C133      1.40383      .   S
    C134   C111      1.39079  1_554   S
    C58    H0        1.08864      .   S
    C58    C57       1.40372      .   S
    C58    C83       1.39122  1_654   S
    O162   H6        1.02749      .   S
    O200   H48       1.02245  1_565   S
    C133   C132      1.49555      .   S
    C57    C56       1.49528      .   S
    O196   C132      1.30398      .   S
    O158   C56       1.30261      .   S
    O192   C128      1.28260      .   S
    O182   C104      1.28274      .   S
    O181   C104      1.27588      .   S
    O191   C128      1.27630  1_455   S
    C132   O197      1.25894  1_565   S
    C56    O159      1.26033      .   S
    C128   C129      1.50028  1_655   S
    C104   C105      1.49268      .   S
    C129   C130      1.43957  1_455   S
    C129   C131      1.36278      .   S
    C105   C106      1.40413      .   S
    C105   C107      1.40399      .   S
    H39    C130      1.08812      .   S
    O195   C136      1.27276      .   S
    O157   C60       1.27319      .   S
    H25    C106      1.08824      .   S
    O156   C60       1.28727      .   S
    O194   C136      1.28813  1_655   S
    H26    C107      1.08920      .   S
    H40    C131      1.08921      .   S
    C130   C127      1.38846      .   S
    C106   C103      1.38880      .   S
    C136   C137      1.49111      .   S
    C60    C61       1.49100      .   S
    C107   C102      1.39176      .   S
    C131   C126      1.39145      .   S
    C127   H38       1.08827      .   S
    C127   C125      1.40413  1_655   S
    C103   H24       1.08825      .   S
    C103   C101      1.40411      .   S
    C102   H23       1.08892      .   S
    C102   C101      1.40431      .   S
    C126   H37       1.08883      .   S
    C126   C125      1.40437      .   S
    C137   C138      1.40409      .   S
    C137   C139      1.40440  1_455   S
    C61    C63       1.40413      .   S
    C61    C62       1.40401      .   S
    H44    C138      1.08889      .   S
    H2     C62       1.08897      .   S
    H3     C63       1.08812      .   S
    H45    C139      1.08816      .   S
    C125   C124      1.49103      .   S
    C101   C100      1.49222      .   S
    C138   C143      1.39153      .   S
    C139   C142      1.38815      .   S
    C63    C66       1.38823      .   S
    C62    C67       1.39157      .   S
    C143   H47       1.08919      .   S
    C143   C141      1.37153      .   S
    C142   H46       1.08818      .   S
    C142   C141      1.43048  1_655   S
    C66    H4        1.08820      .   S
    C66    C65       1.40365      .   S
    C67    H5        1.08917      .   S
    C67    C65       1.40399      .   S
    C124   O187      1.28845  1_455   S
    C124   O188      1.27248      .   S
    C100   O177      1.28798      .   S
    C100   O178      1.27266      .   S
    C141   C140      1.49894  1_455   S
    C65    C64       1.49173      .   S
    C140   O199      1.28255      .   S
    C140   O198      1.27595  1_655   S
    C64    O161      1.28270      .   S
    C64    O160      1.27559      .   S
    O190   C120      1.26034      .   S
    O180   C96       1.02951      .   S
    H41    O193      1.02751      .   S
    H27    O183      1.02523  1_565   S
    C96    O179      1.30363      .   S
    C96    C97       1.49439      .   S
    C120   O189      1.30293      .   S
    C120   C121      1.49500      .   S
    C97    C99       1.40204  1_545   S
    C97    C98       1.40364      .   S
    H36    C123      1.08852      .   S
    H22    C99       1.08856      .   S
    C121   C123      1.40259      .   S
    C121   C122      1.40377      .   S
    H21    C98       1.08844      .   S
    H35    C122      1.08856      .   S
    C99    C70       1.39102  1_655   S
    C123   C146      1.39064      .   S
    C98    C71       1.39062  1_655   S
    C122   C147      1.39061      .   S
    C146   H49       1.08848      .   S
    C146   C145      1.40364      .   S
    C70    H7        1.08852      .   S
    C70    C69       1.40366      .   S
    O169   H13       1.02453  1_565   S
    O207   H55       1.02383      .   S
    C71    H8        1.08850      .   S
    C71    C69       1.40197  1_545   S
    C147   C145      1.40259      .   S
    C147   H50       1.08851      .   S
    C69    C68       1.49449      .   S
    C145   C144      1.49545      .   S
    O203   C144      1.30372      .   S
    O165   C68       1.30376      .   S
    C144   O204      1.25934      .   S
    C68    O166      1.25947  1_565   S
    O174   C92       1.27542      .   S
    O85    C116      1.27553  1_655   S
    O175   C92       1.28303      .   S
    O86    C116      1.28318      .   S
    C92    C93       1.49152      .   S
    C116   C117      1.49096      .   S
    O164   C72       1.27268      .   S
    O202   C148      1.27251      .   S
    C93    C94       1.40367      .   S
    C93    C95       1.40396      .   S
    C117   C119      1.40378  1_455   S
    C117   C118      1.40407      .   S
    O163   C72       1.28798      .   S
    O201   C148      1.28860  1_455   S
    H18    C94       1.08813      .   S
    H33    C119      1.08916      .   S
    H32    C118      1.08817      .   S
    H19    C95       1.08923      .   S
    C72    C73       1.49176      .   S
    C148   C149      1.49198      .   S
    C94    C91       1.38804      .   S
    C119   C114      1.39140      .   S
    C118   C115      1.38808      .   S
    C95    C90       1.39171      .   S
    C91    H17       1.08807      .   S
    C91    C89       1.40385      .   S
    C115   H31       1.08814      .   S
    C115   C113      1.40436  1_455   S
    C114   H30       1.08890      .   S
    C114   C113      1.40402      .   S
    C90    H16       1.08898      .   S
    C90    C89       1.40420      .   S
    C73    C74       1.40408      .   S
    C73    C75       1.40409      .   S
    C149   C150      1.40435      .   S
    C149   C151      1.40446  1_655   S
    H9     C74       1.08890      .   S
    H51    C150      1.08891      .   S
    H10    C75       1.08822      .   S
    H52    C151      1.08822      .   S
    C113   C112      1.49064      .   S
    C89    C88       1.49114      .   S
    C74    C79       1.39156      .   S
    C150   C155      1.39172      .   S
    C75    C78       1.38865      .   S
    C151   C154      1.38871      .   S
    C79    H12       1.08917      .   S
    C79    C77       1.40397      .   S
    C155   H54       1.08919      .   S
    C155   C153      1.40390  1_655   S
    C112   O184      1.28761  1_655   S
    C112   O185      1.27305      .   S
    C88    O170      1.28782      .   S
    C88    O171      1.27259      .   S
    C78    H11       1.08826      .   S
    C78    C77       1.40402      .   S
    C154   H53       1.08821      .   S
    C154   C153      1.40443      .   S
    C77    C76       1.49177      .   S
    C153   C152      1.49253      .   S
    C76    O168      1.28302      .   S
    C76    O167      1.27559      .   S
    C152   O205      1.27619  1_455   S
    C152   O206      1.28272      .   S
    O84    C108      1.02172      .   S
    O173   C80       1.25899      .   S
    H20    O176      1.02323      .   S
    H34    O87       1.02699  1_565   S
    C108   O186      1.30280      .   S
    C108   C109      1.49501      .   S
    C80    O172      1.30386      .   S
    C80    C81       1.49581      .   S
    C109   C111      1.40225  1_545   S
    C81    C83       1.40280      .   S
    H29    C111      1.08846      .   S
    H15    C83       1.08845      .   S
