# CIF file generated by openbabel 2.4.90, see http://openbabel.sf.net
data_I
_chemical_name_common ''
_cell_length_a 14.528
_cell_length_b 15.81
_cell_length_c 18.955
_cell_angle_alpha 90.014
_cell_angle_beta 90.794
_cell_angle_gamma 90.077
_space_group_name_H-M_alt 'P 1'
_space_group_name_Hall 'P 1'
loop_
    _symmetry_equiv_pos_as_xyz
    x,y,z
loop_
    _atom_site_label
    _atom_site_type_symbol
    _atom_site_fract_x
    _atom_site_fract_y
    _atom_site_fract_z
    _atom_site_occupancy
    Zr0     Zr   0.47223   0.57353   0.03946   1.000
    Zr1     Zr   0.65693   0.64040   0.03439   1.000
    Zr2     Zr   0.53105   0.93003   0.53981   1.000
    Zr3     Zr   0.34452   0.86297   0.53115   1.000
    Zr4     Zr   0.53108   0.42988   0.96049   1.000
    Zr5     Zr   0.34403   0.36349   0.96577   1.000
    Zr6     Zr   0.46880   0.07360   0.46016   1.000
    Zr7     Zr   0.65552   0.14053   0.46889   1.000
    Zr8     Zr   0.02804   0.07364   0.96063   1.000
    Zr9     Zr   0.84335   0.14034   0.96567   1.000
    Zr10    Zr   0.96806   0.43008   0.46014   1.000
    Zr11    Zr   0.15288   0.36317   0.46877   1.000
    Zr12    Zr   0.96887   0.92990   0.03948   1.000
    Zr13    Zr   0.15583   0.86352   0.03434   1.000
    Zr14    Zr   0.03075   0.57374   0.53987   1.000
    Zr15    Zr   0.84389   0.64005   0.53127   1.000
    N16     N    0.49955   0.00314   0.00141   1.000
    O17     O    0.35994   0.93939   0.01629   1.000
    O18     O    0.63920   0.06557   0.98514   1.000
    N19     N    0.00841   0.28333   0.19810   1.000
    O20     O    0.98763   0.34726   0.30501   1.000
    O21     O    0.93947   0.23135   0.09894   1.000
    O22     O    0.02178   0.20096   0.09780   1.000
    O23     O    0.06988   0.31660   0.30889   1.000
    N24     N    0.49180   0.78214   0.80140   1.000
    O25     O    0.47891   0.70029   0.90199   1.000
    O26     O    0.42911   0.81523   0.69073   1.000
    O27     O    0.56122   0.73077   0.90066   1.000
    O28     O    0.51149   0.84667   0.69468   1.000
    N29     N    0.98981   0.72035   0.80189   1.000
    O30     O    0.05926   0.77240   0.90101   1.000
    O31     O    0.92759   0.68695   0.69115   1.000
    O32     O    0.01037   0.65645   0.69497   1.000
    O33     O    0.97636   0.80266   0.90224   1.000
    N34     N    0.98775   0.22032   0.69804   1.000
    O35     O    0.05739   0.27231   0.60053   1.000
    O36     O    0.00776   0.15633   0.80523   1.000
    O37     O    0.97505   0.30275   0.59752   1.000
    O38     O    0.92552   0.18694   0.80733   1.000
    N39     N    0.49834   0.50184   0.49996   1.000
    O40     O    0.35788   0.43876   0.48593   1.000
    O41     O    0.63883   0.56480   0.51401   1.000
    N42     N    0.12199   0.99491   0.02216   1.000
    O43     O    0.09162   0.01122   0.00357   1.000
    O44     O    0.07683   0.97528   0.02329   1.000
    O45     O    0.12357   0.95869   0.02200   1.000
    N46     N    0.99973   0.00283   0.49991   1.000
    O47     O    0.85984   0.06541   0.48596   1.000
    O48     O    0.13987   0.93908   0.51399   1.000
    N49     N    0.01011   0.78267   0.30174   1.000
    O50     O    0.94040   0.73049   0.39934   1.000
    O51     O    0.98955   0.84692   0.19471   1.000
    O52     O    0.07239   0.81647   0.19247   1.000
    O53     O    0.02343   0.70058   0.40237   1.000
    N54     N    0.50992   0.22058   0.19821   1.000
    O55     O    0.52349   0.30279   0.09781   1.000
    O56     O    0.48930   0.15651   0.30509   1.000
    O57     O    0.44054   0.27251   0.09909   1.000
    O58     O    0.57207   0.18720   0.30894   1.000
    N59     N    0.00048   0.50176   0.00159   1.000
    O60     O    0.14001   0.43873   0.98526   1.000
    O61     O    0.86094   0.56488   0.01639   1.000
    N62     N    0.51199   0.72040   0.30203   1.000
    O63     O    0.57443   0.68702   0.19274   1.000
    O64     O    0.52450   0.80282   0.40252   1.000
    O65     O    0.44167   0.77238   0.39948   1.000
    O66     O    0.49217   0.65634   0.19484   1.000
    N67     N    0.48910   0.28321   0.69804   1.000
    O68     O    0.47600   0.20082   0.59751   1.000
    O69     O    0.42697   0.31670   0.80745   1.000
    O70     O    0.55889   0.23122   0.60050   1.000
    O71     O    0.50985   0.34719   0.80516   1.000
    N72     N    0.37736   0.99458   0.52190   1.000
    O73     O    0.40702   0.01102   0.50325   1.000
    O74     O    0.42258   0.97512   0.52317   1.000
    O75     O    0.37595   0.95836   0.52100   1.000
    N76     N    0.62211   0.00908   0.47809   1.000
    O77     O    0.59255   0.99264   0.49674   1.000
    O78     O    0.57698   0.02853   0.47683   1.000
    O79     O    0.62366   0.04526   0.47901   1.000
    N80     N    0.87660   0.50868   0.52202   1.000
    O81     O    0.92193   0.52829   0.52328   1.000
    O82     O    0.87521   0.54486   0.52113   1.000
    O83     O    0.90625   0.49237   0.50334   1.000
    N84     N    0.12150   0.49473   0.47799   1.000
    O85     O    0.09196   0.51118   0.49667   1.000
    O86     O    0.07629   0.47526   0.47674   1.000
    O87     O    0.12249   0.45854   0.47890   1.000
    N88     N    0.87512   0.00886   0.97798   1.000
    O89     O    0.90551   0.99245   0.99655   1.000
    O90     O    0.92030   0.02839   0.97684   1.000
    O91     O    0.87413   0.04506   0.97810   1.000
    N92     N    0.37801   0.49491   0.97786   1.000
    O93     O    0.42316   0.47528   0.97671   1.000
    O94     O    0.37640   0.45868   0.97803   1.000
    O95     O    0.40845   0.51119   0.99646   1.000
    N96     N    0.62503   0.50881   0.02204   1.000
    O97     O    0.57988   0.52833   0.02320   1.000
    O98     O    0.62605   0.54505   0.02193   1.000
    O99     O    0.59459   0.49242   0.00346   1.000
loop_
    _geom_bond_atom_site_label_1
    _geom_bond_atom_site_label_2
    _geom_bond_distance
    _geom_bond_site_symmetry_2
    _ccdc_geom_bond_type
    N16    O17       2.28471  1_545   S
    Zr13   O17       3.21989      .   S
    N16    O18       2.27989  1_554   S
    Zr9    O18       3.21727      .   S
    N19    O20       2.28824  1_455   S
    Zr10   O20       3.23487      .   S
    N19    O21       2.27069  1_455   S
    Zr9    O21       3.20886  1_556   S
    N19    O22       2.31472      .   S
    Zr8    O22       3.29018  1_556   S
    N19    O23       2.33041      .   S
    Zr11   O23       3.32797      .   S
    N24    O25       2.31414      .   S
    Zr0    O25       3.29003  1_554   S
    N24    O26       2.33519      .   S
    Zr3    O26       3.33611      .   S
    N24    O27       2.27296      .   S
    Zr1    O27       3.21096  1_554   S
    N24    O28       2.28715      .   S
    Zr2    O28       3.23415      .   S
    N29    O30       2.27356  1_655   S
    Zr13   O30       3.21341  1_554   S
    N29    O31       2.33402      .   S
    Zr15   O31       3.33286      .   S
    N29    O32       2.28775  1_655   S
    Zr14   O32       3.23487      .   S
    N29    O33       2.31502      .   S
    Zr12   O33       3.29119  1_554   S
    N34    O35       2.27290  1_655   S
    Zr11   O35       3.21219      .   S
    N34    O36       2.28493  1_655   S
    Zr8    O36       3.23287      .   S
    N34    O37       2.31414      .   S
    Zr10   O37       3.29229      .   S
    N34    O38       2.33193      .   S
    Zr9    O38       3.32779      .   S
    N39    O40       2.28222      .   S
    Zr11   O40       3.21985      .   S
    N39    O41       2.28185      .   S
    Zr15   O41       3.21882      .   S
    N42    O43       0.61743  1_565   S
    Zr8    O43       1.57224  1_556   S
    N42    O44       0.72595      .   S
    Zr12   O44       1.75475  1_655   S
    N42    O45       0.57316      .   S
    Zr13   O45       1.59281      .   S
    N46    O47       2.27364      .   S
    Zr7    O47       3.21086      .   S
    N46    O48       2.28540  1_645   S
    Zr3    O48       3.22116      .   S
    N49    O50       2.27581  1_455   S
    Zr15   O50       3.21828      .   S
    N49    O51       2.28523  1_455   S
    Zr12   O51       3.23214      .   S
    N49    O52       2.33344      .   S
    Zr13   O52       3.33261      .   S
    N49    O53       2.31339      .   S
    Zr14   O53       3.28948      .   S
    N54    O55       2.31541      .   S
    Zr4    O55       3.29153  1_556   S
    N54    O56       2.28835      .   S
    Zr6    O56       3.23601      .   S
    N54    O57       2.27399      .   S
    Zr5    O57       3.21406  1_556   S
    N54    O58       2.33416      .   S
    Zr7    O58       3.33289      .   S
    N59    O60       2.28495  1_554   S
    Zr5    O60       3.22114      .   S
    N59    O61       2.28148  1_455   S
    Zr1    O61       3.21934      .   S
    N62    O63       2.33361      .   S
    Zr1    O63       3.33010      .   S
    N62    O64       2.31249      .   S
    Zr2    O64       3.28890      .   S
    N62    O65       2.27709      .   S
    Zr3    O65       3.22089      .   S
    N62    O66       2.28445      .   S
    Zr0    O66       3.23195      .   S
    N67    O68       2.31342      .   S
    Zr6    O68       3.29001      .   S
    N67    O69       2.33426      .   S
    Zr5    O69       3.33260      .   S
    N67    O70       2.27487      .   S
    Zr7    O70       3.21720      .   S
    N67    O71       2.28438      .   S
    Zr4    O71       3.23187      .   S
    N72    O73       0.61811  1_565   S
    Zr6    O73       1.57170      .   S
    N72    O74       0.72594      .   S
    Zr2    O74       1.75511      .   S
    N72    O75       0.57328      .   S
    Zr3    O75       1.58758      .   S
    N76    O77       0.61722  1_545   S
    Zr2    O77       1.56922      .   S
    N76    O78       0.72464      .   S
    Zr6    O78       1.75141      .   S
    N76    O79       0.57276      .   S
    Zr7    O79       1.58755      .   S
    N80    O81       0.72757      .   S
    Zr14   O81       1.76010  1_455   S
    N80    O82       0.57272      .   S
    Zr15   O82       1.58521      .   S
    N80    O83       0.61802      .   S
    Zr10   O83       1.57135      .   S
    N84    O85       0.61779      .   S
    Zr14   O85       1.56901      .   S
    N84    O86       0.72506      .   S
    Zr10   O86       1.75062  1_655   S
    N84    O87       0.57267      .   S
    Zr11   O87       1.58400      .   S
    N88    O89       0.61828  1_545   S
    Zr12   O89       1.57147  1_554   S
    N88    O90       0.72562      .   S
    Zr8    O90       1.75118  1_455   S
    N88    O91       0.57259      .   S
    Zr9    O91       1.58855      .   S
    N92    O93       0.72668      .   S
    Zr4    O93       1.75615      .   S
    N92    O94       0.57322      .   S
    Zr5    O94       1.59214      .   S
    N92    O95       0.61754      .   S
    Zr0    O95       1.57189  1_554   S
    N96    O97       0.72585      .   S
    Zr0    O97       1.75151      .   S
    N96    O98       0.57306      .   S
    Zr1    O98       1.58888      .   S
    N96    O99       0.61814      .   S
    Zr4    O99       1.57112  1_556   S
