# CIF file generated by openbabel 2.4.90, see http://openbabel.sf.net
data_I
_chemical_name_common ''
_cell_length_a 14.609
_cell_length_b 21.986
_cell_length_c 21.972
_cell_angle_alpha 60.764
_cell_angle_beta 90.014
_cell_angle_gamma 89.993
_space_group_name_H-M_alt 'P 1'
_space_group_name_Hall 'P 1'
loop_
    _symmetry_equiv_pos_as_xyz
    x,y,z
loop_
    _atom_site_label
    _atom_site_type_symbol
    _atom_site_fract_x
    _atom_site_fract_y
    _atom_site_fract_z
    _atom_site_occupancy
    H0      H    0.22806   0.79861   0.68632   1.000
    H1      H    0.72807   0.79861   0.68632   1.000
    H2      H    0.02199   0.96678   0.32300   1.000
    H3      H    0.52200   0.96678   0.32304   1.000
    H4      H    0.02200   0.96234   0.21074   1.000
    H5      H    0.52202   0.96234   0.21074   1.000
    H6      H    0.47808   0.20255   0.31522   1.000
    H7      H    0.97809   0.20255   0.31522   1.000
    H8      H    0.27190   0.03072   0.67836   1.000
    H9      H    0.77191   0.03072   0.67836   1.000
    H10     H    0.27192   0.03351   0.79123   1.000
    H11     H    0.77194   0.03351   0.79123   1.000
    H12     H    0.02182   0.68498   0.79890   1.000
    H13     H    0.52183   0.68498   0.79890   1.000
    H14     H    0.22804   0.32268   0.96821   1.000
    H15     H    0.72805   0.32269   0.96821   1.000
    H16     H    0.22804   0.20996   0.96567   1.000
    H17     H    0.72805   0.20996   0.96567   1.000
    H18     H    0.27193   0.31550   0.20295   1.000
    H19     H    0.77194   0.31550   0.20295   1.000
    H20     H    0.47788   0.67896   0.03192   1.000
    H21     H    0.97789   0.67897   0.03192   1.000
    H22     H    0.47803   0.79060   0.03743   1.000
    H23     H    0.97804   0.79060   0.03743   1.000
    H24     H    0.27187   0.20213   0.31507   1.000
    H25     H    0.77188   0.20213   0.31507   1.000
    H26     H    0.47813   0.03110   0.67810   1.000
    H27     H    0.97814   0.03110   0.67810   1.000
    H28     H    0.47807   0.03390   0.79097   1.000
    H29     H    0.97809   0.03390   0.79097   1.000
    H30     H    0.02198   0.79747   0.68557   1.000
    H31     H    0.52199   0.79747   0.68557   1.000
    H32     H    0.22809   0.96696   0.32289   1.000
    H33     H    0.72811   0.96696   0.32280   1.000
    H34     H    0.22810   0.96251   0.21060   1.000
    H35     H    0.72811   0.96250   0.21060   1.000
    H36     H    0.47814   0.31596   0.20313   1.000
    H37     H    0.97815   0.31596   0.20313   1.000
    H38     H    0.27182   0.67775   0.03391   1.000
    H39     H    0.77184   0.67775   0.03391   1.000
    H40     H    0.27192   0.78947   0.03929   1.000
    H41     H    0.77194   0.78947   0.03928   1.000
    H42     H    0.22802   0.68621   0.79970   1.000
    H43     H    0.72803   0.68621   0.79970   1.000
    H44     H    0.02184   0.32228   0.96883   1.000
    H45     H    0.52185   0.32228   0.96880   1.000
    H46     H    0.02175   0.20961   0.96620   1.000
    H47     H    0.52177   0.20961   0.96620   1.000
    C48     C    0.29199   0.77312   0.71114   1.000
    C49     C    0.79200   0.77313   0.71114   1.000
    C50     C    0.45819   0.96555   0.29803   1.000
    C51     C    0.95821   0.96554   0.29800   1.000
    C52     C    0.45821   0.96291   0.23600   1.000
    C53     C    0.95823   0.96292   0.23607   1.000
    C54     C    0.04204   0.22805   0.29057   1.000
    C55     C    0.54205   0.22805   0.29057   1.000
    C56     C    0.20806   0.03166   0.70340   1.000
    C57     C    0.70808   0.03166   0.70346   1.000
    C58     C    0.20796   0.03311   0.76602   1.000
    C59     C    0.70797   0.03311   0.76602   1.000
    C60     C    0.45802   0.71026   0.77358   1.000
    C61     C    0.95804   0.71025   0.77358   1.000
    C62     C    0.29200   0.29777   0.96727   1.000
    C63     C    0.79202   0.29776   0.96720   1.000
    C64     C    0.29201   0.23512   0.96606   1.000
    C65     C    0.79203   0.23513   0.96605   1.000
    C66     C    0.20795   0.29064   0.22824   1.000
    C67     C    0.70797   0.29064   0.22824   1.000
    C68     C    0.04171   0.70346   0.03390   1.000
    C69     C    0.54173   0.70347   0.03394   1.000
    C70     C    0.04178   0.76509   0.03712   1.000
    C71     C    0.54179   0.76509   0.03713   1.000
    C72     C    0.20793   0.22781   0.29048   1.000
    C73     C    0.70794   0.22781   0.29048   1.000
    C74     C    0.04194   0.03188   0.70332   1.000
    C75     C    0.54195   0.03188   0.70332   1.000
    C76     C    0.04203   0.03333   0.76588   1.000
    C77     C    0.54205   0.03333   0.76588   1.000
    C78     C    0.45800   0.77248   0.71071   1.000
    C79     C    0.95802   0.77248   0.71070   1.000
    C80     C    0.29190   0.96565   0.29795   1.000
    C81     C    0.79192   0.96564   0.29795   1.000
    C82     C    0.29189   0.96300   0.23600   1.000
    C83     C    0.79191   0.96301   0.23599   1.000
    C84     C    0.04208   0.29090   0.22834   1.000
    C85     C    0.54209   0.29090   0.22834   1.000
    C86     C    0.20802   0.70279   0.03500   1.000
    C87     C    0.70804   0.70279   0.03505   1.000
    C88     C    0.20809   0.76445   0.03818   1.000
    C89     C    0.70811   0.76445   0.03818   1.000
    C90     C    0.29187   0.71094   0.77404   1.000
    C91     C    0.79188   0.71094   0.77400   1.000
    C92     C    0.45787   0.29754   0.96761   1.000
    C93     C    0.95789   0.29753   0.96762   1.000
    C94     C    0.45782   0.23493   0.96637   1.000
    C95     C    0.95783   0.23493   0.96636   1.000
    C96     C    0.37502   0.80445   0.67903   1.000
    C97     C    0.87504   0.80445   0.67903   1.000
    C98     C    0.37504   0.96745   0.32904   1.000
    C99     C    0.87506   0.96745   0.32904   1.000
    C100    C    0.37506   0.96222   0.20442   1.000
    C101    C    0.87507   0.96222   0.20442   1.000
    C102    C    0.12497   0.19595   0.32214   1.000
    C103    C    0.62498   0.19595   0.32214   1.000
    C104    C    0.12500   0.03043   0.67203   1.000
    C105    C    0.62502   0.03043   0.67203   1.000
    C106    C    0.12499   0.03339   0.79806   1.000
    C107    C    0.62500   0.03338   0.79806   1.000
    C108    C    0.37492   0.67923   0.80573   1.000
    C109    C    0.87493   0.67923   0.80573   1.000
    C110    C    0.37495   0.32927   0.96853   1.000
    C111    C    0.87496   0.32927   0.96853   1.000
    C112    C    0.37490   0.20289   0.96611   1.000
    C113    C    0.87492   0.20289   0.96610   1.000
    C114    C    0.12503   0.32276   0.19666   1.000
    C115    C    0.62505   0.32276   0.19666   1.000
    C116    C    0.12484   0.67226   0.03236   1.000
    C117    C    0.62486   0.67226   0.03236   1.000
    C118    C    0.12497   0.79622   0.03866   1.000
    C119    C    0.62499   0.79622   0.03866   1.000
loop_
    _geom_bond_atom_site_label_1
    _geom_bond_atom_site_label_2
    _geom_bond_distance
    _geom_bond_site_symmetry_2
    _ccdc_geom_bond_type
    H21    C68       1.08825  1_655   S
    H20    C69       1.08891      .   S
    C116   C68       1.40326      .   S
    C116   C86       1.40318      .   S
    C117   C69       1.40353      .   S
    C117   C87       1.40350      .   S
    C68    C70       1.39092      .   S
    H38    C86       1.08855      .   S
    H39    C87       1.08889      .   S
    C69    C71       1.39047      .   S
    C86    C88       1.39119      .   S
    C87    C89       1.39050      .   S
    C70    H23       1.08860  1_455   S
    C70    C118      1.40341      .   S
    C71    H22       1.08894      .   S
    C71    C119      1.40338      .   S
    C89    C119      1.40341      .   S
    C89    H41       1.08895      .   S
    C88    C118      1.40338      .   S
    C88    H40       1.08897      .   S
    C114   C66       1.40295      .   S
    C114   C84       1.40292      .   S
    C115   C67       1.40295      .   S
    C115   C85       1.40292      .   S
    H18    C66       1.08846      .   S
    H19    C67       1.08845      .   S
    H37    C84       1.08815  1_655   S
    H36    C85       1.08851      .   S
    C101   C83       1.40348      .   S
    C101   C53       1.40348      .   S
    C100   C52       1.40264      .   S
    C100   C82       1.40354      .   S
    H35    C83       1.08895      .   S
    H34    C82       1.08900      .   S
    H4     C53       1.08865  1_455   S
    H5     C52       1.08814      .   S
    C66    C72       1.39035      .   S
    C67    C73       1.39036      .   S
    C85    C55       1.39047      .   S
    C84    C54       1.39046      .   S
    C83    C81       1.39052      .   S
    C52    C50       1.39223      .   S
    C82    C80       1.39053      .   S
    C53    C51       1.38980      .   S
    C72    H24       1.08854      .   S
    C72    C102      1.40290      .   S
    C73    H25       1.08854      .   S
    C73    C103      1.40290      .   S
    C54    H7        1.08818  1_455   S
    C54    C102      1.40290      .   S
    C55    H6        1.08854      .   S
    C55    C103      1.40290      .   S
    C80    H32       1.08894      .   S
    C80    C98       1.40337      .   S
    C81    H33       1.08799      .   S
    C81    C99       1.40345      .   S
    C51    H2        1.08858  1_655   S
    C51    C99       1.40385      .   S
    C50    H3        1.08896      .   S
    C50    C98       1.40347      .   S
    C104   C74       1.40285      .   S
    C104   C56       1.40215      .   S
    C105   C75       1.40285      .   S
    C105   C57       1.40283      .   S
    H27    C74       1.08858  1_655   S
    H26    C75       1.08896      .   S
    H9     C57       1.08884      .   S
    H8     C56       1.08816      .   S
    C96    C78       1.40343      .   S
    C96    C48       1.40346      .   S
    C97    C79       1.40337      .   S
    C97    C49       1.40346      .   S
    H31    C78       1.08852      .   S
    H30    C79       1.08808  1_455   S
    H1     C49       1.08850      .   S
    H0     C48       1.08851      .   S
    C74    C76       1.39048      .   S
    C75    C77       1.39044      .   S
    C56    C58       1.39175      .   S
    C57    C59       1.39041      .   S
    C79    C61       1.39078      .   S
    C78    C60       1.39061      .   S
    C48    C90       1.39048      .   S
    C49    C91       1.39006      .   S
    C76    H29       1.08797  1_455   S
    C76    C106      1.40325      .   S
    C77    H28       1.08836      .   S
    C77    C107      1.40325      .   S
    C58    H10       1.08840      .   S
    C58    C106      1.40329      .   S
    C59    H11       1.08842      .   S
    C59    C107      1.40329      .   S
    C61    H12       1.08816  1_655   S
    C61    C109      1.40292      .   S
    C60    H13       1.08854      .   S
    C60    C108      1.40294      .   S
    C91    H43       1.08857      .   S
    C91    C109      1.40316      .   S
    C90    H42       1.08834      .   S
    C90    C108      1.40293      .   S
    H16    C64       1.08834      .   S
    H17    C65       1.08837      .   S
    C65    C113      1.40275      .   S
    C65    C63       1.38954      .   S
    C64    C112      1.40271      .   S
    C64    C62       1.39043      .   S
    C113   C95       1.40274      .   S
    C112   C94       1.40267      .   S
    H46    C95       1.08802  1_455   S
    H47    C94       1.08835      .   S
    C95    C93       1.39006      .   S
    C94    C92       1.39008      .   S
    C63    H15       1.08897      .   S
    C63    C111      1.40323      .   S
    C62    H14       1.08849      .   S
    C62    C110      1.40277      .   S
    C92    C110      1.40291      .   S
    C92    H45       1.08826      .   S
    C93    C111      1.40292      .   S
    C93    H44       1.08809  1_655   S
