# CIF file generated by openbabel 2.4.90, see http://openbabel.sf.net
data_I
_chemical_name_common ''
_cell_length_a 14.609
_cell_length_b 21.986
_cell_length_c 21.972
_cell_angle_alpha 60.764
_cell_angle_beta 90.014
_cell_angle_gamma 89.993
_space_group_name_H-M_alt 'P 1'
_space_group_name_Hall 'P 1'
loop_
    _symmetry_equiv_pos_as_xyz
    x,y,z
loop_
    _atom_site_label
    _atom_site_type_symbol
    _atom_site_fract_x
    _atom_site_fract_y
    _atom_site_fract_z
    _atom_site_occupancy
    Lv0     Lv   0.37492   0.26620   0.96708   1.000
    Lv1     Lv   0.12500   0.25923   0.25928   1.000
    Lv2     Lv   0.12500   0.03230   0.73474   1.000
    Lv3     Lv   0.87506   0.96454   0.26686   1.000
    Lv4     Lv   0.62501   0.03230   0.73474   1.000
    Lv5     Lv   0.62492   0.73411   0.03579   1.000
    Lv6     Lv   0.37505   0.96454   0.26687   1.000
    Lv7     Lv   0.87493   0.26621   0.96708   1.000
    Lv8     Lv   0.12491   0.73411   0.03578   1.000
    Lv9     Lv   0.37497   0.74178   0.74247   1.000
    Lv10    Lv   0.62501   0.25922   0.25928   1.000
    Lv11    Lv   0.87498   0.74178   0.74247   1.000
