# CIF file generated by openbabel 2.4.90, see http://openbabel.sf.net
data_I
_chemical_name_common ''
_cell_length_a 14.609
_cell_length_b 21.986
_cell_length_c 21.972
_cell_angle_alpha 60.764
_cell_angle_beta 90.014
_cell_angle_gamma 89.993
_space_group_name_H-M_alt 'P 1'
_space_group_name_Hall 'P 1'
loop_
    _symmetry_equiv_pos_as_xyz
    x,y,z
loop_
    _atom_site_label
    _atom_site_type_symbol
    _atom_site_fract_x
    _atom_site_fract_y
    _atom_site_fract_z
    _atom_site_occupancy
    In0     In   0.49986   0.99968   0.50010   1.000
    In1     In   0.25017   0.99969   0.50009   1.000
    In2     In   0.75018   0.99969   0.50009   1.000
    In3     In   0.24994   0.50191   0.00000   1.000
    In4     In   0.74995   0.50191   0.00000   1.000
    In5     In   0.00014   0.50184   0.00000   1.000
    In6     In   0.50015   0.50184   0.00000   1.000
    In7     In   0.00005   0.99806   0.00240   1.000
    In8     In   0.50006   0.99806   0.00247   1.000
    In9     In   0.24993   0.99795   0.00256   1.000
    In10    In   0.74994   0.99794   0.00256   1.000
    In11    In   0.99984   0.99968   0.50010   1.000
    H12     H    0.37533   0.45796   0.10071   1.000
    H13     H    0.87535   0.45796   0.10071   1.000
    H14     H    0.12507   0.89977   0.54029   1.000
    H15     H    0.62509   0.89977   0.54029   1.000
    H16     H    0.37497   0.09981   0.45949   1.000
    H17     H    0.87498   0.09980   0.45949   1.000
    H18     H    0.12536   0.46390   0.93737   1.000
    H19     H    0.62538   0.46390   0.93737   1.000
    H20     H    0.12505   0.08092   0.00991   1.000
    H21     H    0.62506   0.08092   0.00991   1.000
    H22     H    0.37494   0.98953   0.92014   1.000
    H23     H    0.87496   0.98954   0.92014   1.000
    O24     O    0.79713   0.89876   0.58673   1.000
    O25     O    0.29696   0.97618   0.41861   1.000
    O26     O    0.79697   0.97618   0.41861   1.000
    O27     O    0.29711   0.96584   0.10848   1.000
    C28     C    0.37505   0.87247   0.61233   1.000
    C29     C    0.87507   0.87247   0.61230   1.000
    C30     C    0.37503   0.97360   0.39400   1.000
    C31     C    0.87504   0.97360   0.39000   1.000
    C32     C    0.37505   0.96444   0.13527   1.000
    C33     C    0.87506   0.96444   0.13527   1.000
    C34     C    0.12496   0.12733   0.38830   1.000
    C35     C    0.62497   0.12733   0.38830   1.000
    C36     C    0.12501   0.02556   0.60632   1.000
    C37     C    0.62502   0.02556   0.60632   1.000
    C38     C    0.12497   0.03054   0.86762   1.000
    C39     C    0.62499   0.03054   0.86762   1.000
    C40     C    0.37484   0.61325   0.87445   1.000
    C41     C    0.87486   0.61325   0.87445   1.000
    C42     C    0.37509   0.39511   0.97311   1.000
    C43     C    0.87510   0.39511   0.97311   1.000
    C44     C    0.37493   0.13317   0.96922   1.000
    C45     C    0.87494   0.13317   0.96923   1.000
    C46     C    0.12512   0.38969   0.12864   1.000
    C47     C    0.62513   0.38969   0.12864   1.000
    C48     C    0.12481   0.60787   0.02541   1.000
    C49     C    0.62482   0.60787   0.02541   1.000
    C50     C    0.12505   0.86520   0.03674   1.000
    C51     C    0.62506   0.86520   0.03674   1.000
    O52     O    0.45299   0.89873   0.58676   1.000
    O53     O    0.95300   0.89873   0.58676   1.000
    O54     O    0.45310   0.97615   0.41865   1.000
    O55     O    0.95312   0.97615   0.41865   1.000
    O56     O    0.45295   0.96589   0.10844   1.000
    O57     O    0.95296   0.96589   0.10844   1.000
    O58     O    0.20293   0.10099   0.41350   1.000
    O59     O    0.70295   0.10099   0.41350   1.000
    O60     O    0.20309   0.02351   0.58149   1.000
    O61     O    0.70310   0.02351   0.58149   1.000
    O62     O    0.20301   0.02888   0.89460   1.000
    O63     O    0.70303   0.02888   0.89460   1.000
    O64     O    0.29685   0.58897   0.90126   1.000
    O65     O    0.79687   0.58897   0.90126   1.000
    O66     O    0.29714   0.42067   0.97440   1.000
    O67     O    0.79716   0.42067   0.97444   1.000
    O68     O    0.29690   0.10632   0.97090   1.000
    O69     O    0.79691   0.10632   0.97090   1.000
    O70     O    0.04712   0.41550   0.10270   1.000
    O71     O    0.54713   0.41550   0.10270   1.000
    O72     O    0.04685   0.58401   0.02137   1.000
    O73     O    0.54687   0.58401   0.02137   1.000
    O74     O    0.04716   0.89205   0.03529   1.000
    O75     O    0.54718   0.89205   0.03520   1.000
    O76     O    0.04701   0.10100   0.41355   1.000
    O77     O    0.54702   0.10100   0.41355   1.000
    O78     O    0.04692   0.02363   0.58141   1.000
    O79     O    0.54693   0.02363   0.58141   1.000
    O80     O    0.04694   0.02910   0.89448   1.000
    O81     O    0.54695   0.02910   0.89448   1.000
    O82     O    0.29711   0.89876   0.58673   1.000
    O83     O    0.79712   0.96584   0.10848   1.000
    O84     O    0.20323   0.41479   0.10241   1.000
    O85     O    0.70325   0.41479   0.10241   1.000
    O86     O    0.20269   0.58260   0.02367   1.000
    O87     O    0.70270   0.58260   0.02367   1.000
    O88     O    0.20297   0.89185   0.03558   1.000
    O89     O    0.70298   0.89185   0.03558   1.000
    O90     O    0.45272   0.58731   0.90013   1.000
    O91     O    0.95274   0.58731   0.90013   1.000
    O92     O    0.45326   0.41961   0.97580   1.000
    O93     O    0.95327   0.41961   0.97580   1.000
    O94     O    0.45301   0.10637   0.97087   1.000
    O95     O    0.95303   0.10637   0.97087   1.000
    O96     O    0.37500   0.05202   0.49790   1.000
    O97     O    0.87501   0.05202   0.49790   1.000
    O98     O    0.12502   0.94779   0.50232   1.000
    O99     O    0.62504   0.94779   0.50232   1.000
    O100    O    0.37514   0.49698   0.05323   1.000
    O101    O    0.87516   0.49698   0.05323   1.000
    O102    O    0.12513   0.50116   0.94933   1.000
    O103    O    0.62514   0.50116   0.94933   1.000
    O104    O    0.37501   0.97150   0.97044   1.000
    O105    O    0.87503   0.97150   0.97044   1.000
    O106    O    0.12500   0.03053   0.02880   1.000
    O107    O    0.62502   0.03053   0.02880   1.000
    Og108   Og   0.37504   0.84980   0.63456   1.000
    Og109   Og   0.87506   0.84980   0.63454   1.000
    Og110   Og   0.37503   0.97155   0.37235   1.000
    Og111   Og   0.87505   0.97155   0.36968   1.000
    Og112   Og   0.37505   0.96370   0.15832   1.000
    Og113   Og   0.87507   0.96370   0.15832   1.000
    Og114   Og   0.12496   0.15021   0.36625   1.000
    Og115   Og   0.62498   0.15020   0.36625   1.000
    Og116   Og   0.12501   0.02718   0.62822   1.000
    Og117   Og   0.62502   0.02718   0.62822   1.000
    Og118   Og   0.12498   0.03149   0.84443   1.000
    Og119   Og   0.62499   0.03149   0.84443   1.000
    Og120   Og   0.37487   0.63524   0.85154   1.000
    Og121   Og   0.87488   0.63524   0.85154   1.000
    Og122   Og   0.37504   0.37316   0.97158   1.000
    Og123   Og   0.87505   0.37317   0.97158   1.000
    Og124   Og   0.37492   0.15641   0.96818   1.000
    Og125   Og   0.87493   0.15641   0.96819   1.000
    Og126   Og   0.12509   0.36738   0.15131   1.000
    Og127   Og   0.62510   0.36738   0.15131   1.000
    Og128   Og   0.12482   0.62933   0.02773   1.000
    Og129   Og   0.62483   0.62933   0.02773   1.000
    Og130   Og   0.12502   0.84221   0.03738   1.000
    Og131   Og   0.62504   0.84221   0.03738   1.000
loop_
    _geom_bond_atom_site_label_1
    _geom_bond_atom_site_label_2
    _geom_bond_distance
    _geom_bond_site_symmetry_2
    _ccdc_geom_bond_type
    In3    O64       2.18744  1_554   S
    In3    O102      2.14040  1_554   S
    In4    O65       2.18743  1_554   S
    In4    O103      2.14041  1_554   S
    In5    O72       2.18593      .   S
    In5    O101      2.14293  1_455   S
    In6    O73       2.18594      .   S
    In6    O100      2.14327      .   S
    In7    O74       2.18699      .   S
    In7    O105      2.13785  1_454   S
    In8    O107      2.13999  1_565   S
    In8    O75       2.18766      .   S
    In8    O104      2.13893  1_554   S
    In10   O83       2.18722      .   S
    In9    O106      2.14007  1_565   S
    In9    O27       2.18722      .   S
    H20    O106      0.97493      .   S
    H21    O107      0.97493      .   S
    O72    C48       1.27506      .   S
    O73    C49       1.27505      .   S
    O86    C48       1.27489      .   S
    O87    C49       1.27486      .   S
    O75    C51       1.27450      .   S
    O74    C50       1.27490      .   S
    O88    C50       1.27487      .   S
    O89    C51       1.27487      .   S
    O101   H13       0.97472      .   S
    O100   H12       0.97472      .   S
    O85    C47       1.27619      .   S
    O84    C46       1.27620      .   S
    O70    C46       1.27631      .   S
    O71    C47       1.27631      .   S
    O56    C32       1.27504      .   S
    O57    C33       1.27501      .   S
    O27    C32       1.27509      .   S
    O83    C33       1.27506      .   S
    C35    O59       1.27508      .   S
    C35    O77       1.27536      .   S
    C34    O58       1.27508      .   S
    C34    O76       1.27538      .   S
    C31    O26       1.31696      .   S
    C31    O55       1.31697      .   S
    C30    O25       1.27543      .   S
    C30    O54       1.27545      .   S
    O25    In1       2.20084      .   S
    O26    In2       2.20084      .   S
    O54    In0       2.20025      .   S
    O55    In11      2.20013      .   S
    H17    O97       0.97462      .   S
    H16    O96       0.97463      .   S
    O96    In1       2.14443  1_545   S
    O97    In11      2.14413  1_545   S
    In2    O99       2.14300      .   S
    In1    O98       2.14301      .   S
    O99    H15       0.97485      .   S
    O98    H14       0.97485      .   S
    O79    C37       1.27482      .   S
    O78    C36       1.27482      .   S
    O61    C37       1.27477      .   S
    O60    C36       1.27478      .   S
    O24    C29       1.27617      .   S
    O82    C28       1.27633      .   S
    O53    C29       1.27612      .   S
    O52    C28       1.27625      .   S
    C39    O81       1.27713      .   S
    C39    O63       1.27715      .   S
    C38    O80       1.27713      .   S
    C38    O62       1.27715      .   S
    C41    O91       1.27404      .   S
    C41    O65       1.27413      .   S
    C40    O90       1.27404      .   S
    C40    O64       1.27411      .   S
    H22    O104      0.97498      .   S
    H23    O105      0.97498      .   S
    H18    O102      0.97482      .   S
    H19    O103      0.97480      .   S
    C44    O94       1.27624      .   S
    C44    O68       1.27605      .   S
    C45    O95       1.27624      .   S
    C45    O69       1.27608      .   S
    C43    O67       1.27637      .   S
    C43    O93       1.27634      .   S
    C42    O66       1.27619      .   S
    C42    O92       1.27637      .   S
    O52    In0       2.21215      .   S
    O53    In11      2.21202      .   S
    O56    In8       2.18804      .   S
    O57    In7       2.18930  1_655   S
    O58    In1       2.21730  1_545   S
    O59    In2       2.21732  1_545   S
    O60    In1       2.20495  1_545   S
    O61    In2       2.20494  1_545   S
    O62    In9       2.23211  1_546   S
    O63    In10      2.23211  1_546   S
    O66    In3       2.22784  1_556   S
    O67    In4       2.22725  1_556   S
    O68    In9       2.23914  1_546   S
    O69    In10      2.23916  1_546   S
    O70    In5       2.23185      .   S
    O71    In6       2.23185      .   S
    O76    In11      2.21723  1_445   S
    O77    In0       2.21725  1_545   S
    O78    In11      2.20463  1_445   S
    O79    In0       2.20463  1_545   S
    O80    In7       2.23112  1_546   S
    O81    In8       2.23252  1_546   S
    O82    In1       2.21152      .   S
    O24    In2       2.21152      .   S
    O84    In3       2.23352      .   S
    O85    In4       2.23352      .   S
    O86    In3       2.18983      .   S
    O87    In4       2.18986      .   S
    O88    In9       2.18769      .   S
    O89    In10      2.18767      .   S
    O90    In6       2.19036  1_556   S
    O91    In5       2.19023  1_656   S
    O92    In6       2.22703  1_556   S
    O93    In5       2.22688  1_656   S
    O94    In8       2.23812  1_546   S
    O95    In7       2.23831  1_646   S
    O96    In0       2.14450  1_545   S
    O97    In2       2.14443  1_545   S
    O98    In11      2.14322  1_455   S
    O99    In0       2.14321      .   S
    O100   In3       2.14491      .   S
    O101   In4       2.14490      .   S
    O102   In5       2.14271  1_556   S
    O103   In6       2.14271  1_556   S
    O104   In9       2.13930  1_556   S
    O105   In10      2.13929  1_556   S
    O106   In7       2.14065  1_545   S
    O107   In10      2.14008  1_545   S
    C28    Og108     0.49925      .   S
    C29    Og109     0.49935      .   S
    C30    Og110     0.49932      .   S
    C31    Og111     0.47013      .   S
    C32    Og112     0.49871      .   S
    C33    Og113     0.49872      .   S
    C34    Og114     0.49968      .   S
    C35    Og115     0.49968      .   S
    C36    Og116     0.49968      .   S
    C37    Og117     0.49969      .   S
    C38    Og118     0.49959      .   S
    C39    Og119     0.49960      .   S
    C40    Og120     0.49941      .   S
    C41    Og121     0.49941      .   S
    C42    Og122     0.49978      .   S
    C43    Og123     0.49980      .   S
    C44    Og124     0.50022      .   S
    C45    Og125     0.50018      .   S
    C46    Og126     0.50008      .   S
    C47    Og127     0.50008      .   S
    C48    Og128     0.49871      .   S
    C49    Og129     0.49871      .   S
    C50    Og130     0.49882      .   S
    C51    Og131     0.49882      .   S
