# CIF file generated by openbabel 2.4.90, see http://openbabel.sf.net
data_I
_chemical_name_common ''
_cell_length_a 14.609
_cell_length_b 21.986
_cell_length_c 21.972
_cell_angle_alpha 60.764
_cell_angle_beta 90.014
_cell_angle_gamma 89.993
_space_group_name_H-M_alt 'P 1'
_space_group_name_Hall 'P 1'
loop_
    _symmetry_equiv_pos_as_xyz
    x,y,z
loop_
    _atom_site_label
    _atom_site_type_symbol
    _atom_site_fract_x
    _atom_site_fract_y
    _atom_site_fract_z
    _atom_site_occupancy
    H0      H    0.37533   0.45796   0.10071   1.000
    H1      H    0.87535   0.45796   0.10071   1.000
    H2      H    0.12507   0.89977   0.54029   1.000
    H3      H    0.62509   0.89977   0.54029   1.000
    H4      H    0.37497   0.09981   0.45949   1.000
    H5      H    0.87498   0.09980   0.45949   1.000
    H6      H    0.12536   0.46390   0.93737   1.000
    H7      H    0.62538   0.46390   0.93737   1.000
    H8      H    0.12505   0.08092   0.00991   1.000
    H9      H    0.62506   0.08092   0.00991   1.000
    H10     H    0.37494   0.98953   0.92014   1.000
    H11     H    0.87496   0.98954   0.92014   1.000
    O12     O    0.79713   0.89876   0.58673   1.000
    O13     O    0.29696   0.97618   0.41861   1.000
    O14     O    0.79697   0.97618   0.41861   1.000
    O15     O    0.29711   0.96584   0.10848   1.000
    C16     C    0.37505   0.87247   0.61233   1.000
    C17     C    0.87507   0.87247   0.61230   1.000
    C18     C    0.37503   0.97360   0.39400   1.000
    C19     C    0.87504   0.97360   0.39000   1.000
    C20     C    0.37505   0.96444   0.13527   1.000
    C21     C    0.87506   0.96444   0.13527   1.000
    C22     C    0.12496   0.12733   0.38830   1.000
    C23     C    0.62497   0.12733   0.38830   1.000
    C24     C    0.12501   0.02556   0.60632   1.000
    C25     C    0.62502   0.02556   0.60632   1.000
    C26     C    0.12497   0.03054   0.86762   1.000
    C27     C    0.62499   0.03054   0.86762   1.000
    C28     C    0.37484   0.61325   0.87445   1.000
    C29     C    0.87486   0.61325   0.87445   1.000
    C30     C    0.37509   0.39511   0.97311   1.000
    C31     C    0.87510   0.39511   0.97311   1.000
    C32     C    0.37493   0.13317   0.96922   1.000
    C33     C    0.87494   0.13317   0.96923   1.000
    C34     C    0.12512   0.38969   0.12864   1.000
    C35     C    0.62513   0.38969   0.12864   1.000
    C36     C    0.12481   0.60787   0.02541   1.000
    C37     C    0.62482   0.60787   0.02541   1.000
    C38     C    0.12505   0.86520   0.03674   1.000
    C39     C    0.62506   0.86520   0.03674   1.000
    O40     O    0.45299   0.89873   0.58676   1.000
    O41     O    0.95300   0.89873   0.58676   1.000
    O42     O    0.45310   0.97615   0.41865   1.000
    O43     O    0.95312   0.97615   0.41865   1.000
    O44     O    0.45295   0.96589   0.10844   1.000
    O45     O    0.95296   0.96589   0.10844   1.000
    O46     O    0.20293   0.10099   0.41350   1.000
    O47     O    0.70295   0.10099   0.41350   1.000
    O48     O    0.20309   0.02351   0.58149   1.000
    O49     O    0.70310   0.02351   0.58149   1.000
    O50     O    0.20301   0.02888   0.89460   1.000
    O51     O    0.70303   0.02888   0.89460   1.000
    O52     O    0.29685   0.58897   0.90126   1.000
    O53     O    0.79687   0.58897   0.90126   1.000
    O54     O    0.29714   0.42067   0.97440   1.000
    O55     O    0.79716   0.42067   0.97444   1.000
    O56     O    0.29690   0.10632   0.97090   1.000
    O57     O    0.79691   0.10632   0.97090   1.000
    O58     O    0.04712   0.41550   0.10270   1.000
    O59     O    0.54713   0.41550   0.10270   1.000
    O60     O    0.04685   0.58401   0.02137   1.000
    O61     O    0.54687   0.58401   0.02137   1.000
    O62     O    0.04716   0.89205   0.03529   1.000
    O63     O    0.54718   0.89205   0.03520   1.000
    O64     O    0.04701   0.10100   0.41355   1.000
    O65     O    0.54702   0.10100   0.41355   1.000
    O66     O    0.04692   0.02363   0.58141   1.000
    O67     O    0.54693   0.02363   0.58141   1.000
    O68     O    0.04694   0.02910   0.89448   1.000
    O69     O    0.54695   0.02910   0.89448   1.000
    O70     O    0.29711   0.89876   0.58673   1.000
    O71     O    0.79712   0.96584   0.10848   1.000
    O72     O    0.20323   0.41479   0.10241   1.000
    O73     O    0.70325   0.41479   0.10241   1.000
    O74     O    0.20269   0.58260   0.02367   1.000
    O75     O    0.70270   0.58260   0.02367   1.000
    O76     O    0.20297   0.89185   0.03558   1.000
    O77     O    0.70298   0.89185   0.03558   1.000
    O78     O    0.45272   0.58731   0.90013   1.000
    O79     O    0.95274   0.58731   0.90013   1.000
    O80     O    0.45326   0.41961   0.97580   1.000
    O81     O    0.95327   0.41961   0.97580   1.000
    O82     O    0.45301   0.10637   0.97087   1.000
    O83     O    0.95303   0.10637   0.97087   1.000
    O84     O    0.37500   0.05202   0.49790   1.000
    O85     O    0.87501   0.05202   0.49790   1.000
    O86     O    0.12502   0.94779   0.50232   1.000
    O87     O    0.62504   0.94779   0.50232   1.000
    O88     O    0.37514   0.49698   0.05323   1.000
    O89     O    0.87516   0.49698   0.05323   1.000
    O90     O    0.12513   0.50116   0.94933   1.000
    O91     O    0.62514   0.50116   0.94933   1.000
    O92     O    0.37501   0.97150   0.97044   1.000
    O93     O    0.87503   0.97150   0.97044   1.000
    O94     O    0.12500   0.03053   0.02880   1.000
    O95     O    0.62502   0.03053   0.02880   1.000
loop_
    _geom_bond_atom_site_label_1
    _geom_bond_atom_site_label_2
    _geom_bond_distance
    _geom_bond_site_symmetry_2
    _ccdc_geom_bond_type
    H8     O94       0.97493      .   S
    H9     O95       0.97493      .   S
    O60    C36       1.27506      .   S
    O61    C37       1.27505      .   S
    O74    C36       1.27489      .   S
    O75    C37       1.27486      .   S
    O63    C39       1.27450      .   S
    O62    C38       1.27490      .   S
    O76    C38       1.27487      .   S
    O77    C39       1.27487      .   S
    O89    H1        0.97472      .   S
    O88    H0        0.97472      .   S
    O73    C35       1.27619      .   S
    O72    C34       1.27620      .   S
    O58    C34       1.27631      .   S
    O59    C35       1.27631      .   S
    O44    C20       1.27504      .   S
    O45    C21       1.27501      .   S
    O15    C20       1.27509      .   S
    O71    C21       1.27506      .   S
    C23    O47       1.27508      .   S
    C23    O65       1.27536      .   S
    C22    O46       1.27508      .   S
    C22    O64       1.27538      .   S
    C19    O14       1.31696      .   S
    C19    O43       1.31697      .   S
    C18    O13       1.27543      .   S
    C18    O42       1.27545      .   S
    H5     O85       0.97462      .   S
    H4     O84       0.97463      .   S
    O87    H3        0.97485      .   S
    O86    H2        0.97485      .   S
    O67    C25       1.27482      .   S
    O66    C24       1.27482      .   S
    O49    C25       1.27477      .   S
    O48    C24       1.27478      .   S
    O12    C17       1.27617      .   S
    O70    C16       1.27633      .   S
    O41    C17       1.27612      .   S
    O40    C16       1.27625      .   S
    C27    O69       1.27713      .   S
    C27    O51       1.27715      .   S
    C26    O68       1.27713      .   S
    C26    O50       1.27715      .   S
    C29    O79       1.27404      .   S
    C29    O53       1.27413      .   S
    C28    O78       1.27404      .   S
    C28    O52       1.27411      .   S
    H10    O92       0.97498      .   S
    H11    O93       0.97498      .   S
    H6     O90       0.97482      .   S
    H7     O91       0.97480      .   S
    C32    O82       1.27624      .   S
    C32    O56       1.27605      .   S
    C33    O83       1.27624      .   S
    C33    O57       1.27608      .   S
    C31    O55       1.27637      .   S
    C31    O81       1.27634      .   S
    C30    O54       1.27619      .   S
    C30    O80       1.27637      .   S
