# CIF file generated by openbabel 2.4.90, see http://openbabel.sf.net
data_I
_chemical_name_common ''
_cell_length_a 14.609
_cell_length_b 21.986
_cell_length_c 21.972
_cell_angle_alpha 60.764
_cell_angle_beta 90.014
_cell_angle_gamma 89.993
_space_group_name_H-M_alt 'P 1'
_space_group_name_Hall 'P 1'
loop_
    _symmetry_equiv_pos_as_xyz
    x,y,z
loop_
    _atom_site_label
    _atom_site_type_symbol
    _atom_site_fract_x
    _atom_site_fract_y
    _atom_site_fract_z
    _atom_site_occupancy
    In0     In   0.49986   0.99968   0.50010   1.000
    In1     In   0.25017   0.99969   0.50009   1.000
    In2     In   0.75018   0.99969   0.50009   1.000
    In3     In   0.24994   0.50191   0.00000   1.000
    In4     In   0.74995   0.50191   0.00000   1.000
    In5     In   0.00014   0.50184   0.00000   1.000
    In6     In   0.50015   0.50184   0.00000   1.000
    In7     In   0.00005   0.99806   0.00240   1.000
    In8     In   0.50006   0.99806   0.00247   1.000
    In9     In   0.24993   0.99795   0.00256   1.000
    In10    In   0.74994   0.99794   0.00256   1.000
    In11    In   0.99984   0.99968   0.50010   1.000
