# CIF file generated by openbabel 2.4.90, see http://openbabel.sf.net
data_I
_chemical_name_common ''
_cell_length_a 14.609
_cell_length_b 21.986
_cell_length_c 21.972
_cell_angle_alpha 60.764
_cell_angle_beta 90.014
_cell_angle_gamma 89.993
_space_group_name_H-M_alt 'P 1'
_space_group_name_Hall 'P 1'
loop_
    _symmetry_equiv_pos_as_xyz
    x,y,z
loop_
    _atom_site_label
    _atom_site_type_symbol
    _atom_site_fract_x
    _atom_site_fract_y
    _atom_site_fract_z
    _atom_site_occupancy
    C0      C    0.37505   0.87247   0.61233   1.000
    C1      C    0.87507   0.87247   0.61230   1.000
    C2      C    0.37503   0.97360   0.39400   1.000
    C3      C    0.87504   0.97360   0.39000   1.000
    C4      C    0.37505   0.96444   0.13527   1.000
    C5      C    0.87506   0.96444   0.13527   1.000
    C6      C    0.12496   0.12733   0.38830   1.000
    C7      C    0.62497   0.12733   0.38830   1.000
    C8      C    0.12501   0.02556   0.60632   1.000
    C9      C    0.62502   0.02556   0.60632   1.000
    C10     C    0.12497   0.03054   0.86762   1.000
    C11     C    0.62499   0.03054   0.86762   1.000
    C12     C    0.37484   0.61325   0.87445   1.000
    C13     C    0.87486   0.61325   0.87445   1.000
    C14     C    0.37509   0.39511   0.97311   1.000
    C15     C    0.87510   0.39511   0.97311   1.000
    C16     C    0.37493   0.13317   0.96922   1.000
    C17     C    0.87494   0.13317   0.96923   1.000
    C18     C    0.12512   0.38969   0.12864   1.000
    C19     C    0.62513   0.38969   0.12864   1.000
    C20     C    0.12481   0.60787   0.02541   1.000
    C21     C    0.62482   0.60787   0.02541   1.000
    C22     C    0.12505   0.86520   0.03674   1.000
    C23     C    0.62506   0.86520   0.03674   1.000
