# CIF file generated by openbabel 2.4.90, see http://openbabel.sf.net
data_I
_chemical_name_common ''
_cell_length_a 14.609
_cell_length_b 21.986
_cell_length_c 21.972
_cell_angle_alpha 60.764
_cell_angle_beta 90.014
_cell_angle_gamma 89.993
_space_group_name_H-M_alt 'P 1'
_space_group_name_Hall 'P 1'
loop_
    _symmetry_equiv_pos_as_xyz
    x,y,z
loop_
    _atom_site_label
    _atom_site_type_symbol
    _atom_site_fract_x
    _atom_site_fract_y
    _atom_site_fract_z
    _atom_site_occupancy
    Zr0     Zr   0.99984   0.99968   0.50010   1.000
    Zr1     Zr   0.49986   0.99968   0.50010   1.000
    Zr2     Zr   0.25017   0.99969   0.50009   1.000
    Zr3     Zr   0.75018   0.99969   0.50009   1.000
    Zr4     Zr   0.24994   0.50191   0.00000   1.000
    Zr5     Zr   0.74995   0.50191   0.00000   1.000
    Zr6     Zr   0.00014   0.50184   0.00000   1.000
    Zr7     Zr   0.50015   0.50184   0.00000   1.000
    Zr8     Zr   0.00005   0.99806   0.00240   1.000
    Zr9     Zr   0.50006   0.99806   0.00247   1.000
    Zr10    Zr   0.24993   0.99795   0.00256   1.000
    Zr11    Zr   0.74994   0.99794   0.00256   1.000
    Zr12    Zr   0.37533   0.45796   0.10071   1.000
    Zr13    Zr   0.87535   0.45796   0.10071   1.000
    Zr14    Zr   0.12507   0.89977   0.54029   1.000
    Zr15    Zr   0.62509   0.89977   0.54029   1.000
    Zr16    Zr   0.37497   0.09981   0.45949   1.000
    Zr17    Zr   0.87498   0.09980   0.45949   1.000
    Zr18    Zr   0.12536   0.46390   0.93737   1.000
    Zr19    Zr   0.62538   0.46390   0.93737   1.000
    Zr20    Zr   0.12505   0.08092   0.00991   1.000
    Zr21    Zr   0.62506   0.08092   0.00991   1.000
    Zr22    Zr   0.37494   0.98953   0.92014   1.000
    Zr23    Zr   0.87496   0.98954   0.92014   1.000
    Zr24    Zr   0.37505   0.87247   0.61233   1.000
    Zr25    Zr   0.87507   0.87247   0.61230   1.000
    Zr26    Zr   0.37503   0.97360   0.39400   1.000
    Zr27    Zr   0.87504   0.97360   0.39000   1.000
    Zr28    Zr   0.37505   0.96444   0.13527   1.000
    Zr29    Zr   0.87506   0.96444   0.13527   1.000
    Zr30    Zr   0.12496   0.12733   0.38830   1.000
    Zr31    Zr   0.62497   0.12733   0.38830   1.000
    Zr32    Zr   0.12501   0.02556   0.60632   1.000
    Zr33    Zr   0.62502   0.02556   0.60632   1.000
    Zr34    Zr   0.12497   0.03054   0.86762   1.000
    Zr35    Zr   0.62499   0.03054   0.86762   1.000
    Zr36    Zr   0.37484   0.61325   0.87445   1.000
    Zr37    Zr   0.87486   0.61325   0.87445   1.000
    Zr38    Zr   0.37509   0.39511   0.97311   1.000
    Zr39    Zr   0.87510   0.39511   0.97311   1.000
    Zr40    Zr   0.37493   0.13317   0.96922   1.000
    Zr41    Zr   0.87494   0.13317   0.96923   1.000
    Zr42    Zr   0.12512   0.38969   0.12864   1.000
    Zr43    Zr   0.62513   0.38969   0.12864   1.000
    Zr44    Zr   0.12481   0.60787   0.02541   1.000
    Zr45    Zr   0.62482   0.60787   0.02541   1.000
    Zr46    Zr   0.12505   0.86520   0.03674   1.000
    Zr47    Zr   0.62506   0.86520   0.03674   1.000
    Zr48    Zr   0.45299   0.89873   0.58676   1.000
    Zr49    Zr   0.95300   0.89873   0.58676   1.000
    Zr50    Zr   0.45310   0.97615   0.41865   1.000
    Zr51    Zr   0.95312   0.97615   0.41865   1.000
    Zr52    Zr   0.45295   0.96589   0.10844   1.000
    Zr53    Zr   0.95296   0.96589   0.10844   1.000
    Zr54    Zr   0.20293   0.10099   0.41350   1.000
    Zr55    Zr   0.70295   0.10099   0.41350   1.000
    Zr56    Zr   0.20309   0.02351   0.58149   1.000
    Zr57    Zr   0.70310   0.02351   0.58149   1.000
    Zr58    Zr   0.20301   0.02888   0.89460   1.000
    Zr59    Zr   0.70303   0.02888   0.89460   1.000
    Zr60    Zr   0.29685   0.58897   0.90126   1.000
    Zr61    Zr   0.79687   0.58897   0.90126   1.000
    Zr62    Zr   0.29714   0.42067   0.97440   1.000
    Zr63    Zr   0.79716   0.42067   0.97444   1.000
    Zr64    Zr   0.29690   0.10632   0.97090   1.000
    Zr65    Zr   0.79691   0.10632   0.97090   1.000
    Zr66    Zr   0.04712   0.41550   0.10270   1.000
    Zr67    Zr   0.54713   0.41550   0.10270   1.000
    Zr68    Zr   0.04685   0.58401   0.02137   1.000
    Zr69    Zr   0.54687   0.58401   0.02137   1.000
    Zr70    Zr   0.04716   0.89205   0.03529   1.000
    Zr71    Zr   0.54718   0.89205   0.03520   1.000
    Zr72    Zr   0.04701   0.10100   0.41355   1.000
    Zr73    Zr   0.54702   0.10100   0.41355   1.000
    Zr74    Zr   0.04692   0.02363   0.58141   1.000
    Zr75    Zr   0.54693   0.02363   0.58141   1.000
    Zr76    Zr   0.04694   0.02910   0.89448   1.000
    Zr77    Zr   0.54695   0.02910   0.89448   1.000
    Zr78    Zr   0.29711   0.89876   0.58673   1.000
    Zr79    Zr   0.79713   0.89876   0.58673   1.000
    Zr80    Zr   0.29696   0.97618   0.41861   1.000
    Zr81    Zr   0.79697   0.97618   0.41861   1.000
    Zr82    Zr   0.29711   0.96584   0.10848   1.000
    Zr83    Zr   0.79712   0.96584   0.10848   1.000
    Zr84    Zr   0.20323   0.41479   0.10241   1.000
    Zr85    Zr   0.70325   0.41479   0.10241   1.000
    Zr86    Zr   0.20269   0.58260   0.02367   1.000
    Zr87    Zr   0.70270   0.58260   0.02367   1.000
    Zr88    Zr   0.20297   0.89185   0.03558   1.000
    Zr89    Zr   0.70298   0.89185   0.03558   1.000
    Zr90    Zr   0.45272   0.58731   0.90013   1.000
    Zr91    Zr   0.95274   0.58731   0.90013   1.000
    Zr92    Zr   0.45326   0.41961   0.97580   1.000
    Zr93    Zr   0.95327   0.41961   0.97580   1.000
    Zr94    Zr   0.45301   0.10637   0.97087   1.000
    Zr95    Zr   0.95303   0.10637   0.97087   1.000
    Zr96    Zr   0.37500   0.05202   0.49790   1.000
    Zr97    Zr   0.87501   0.05202   0.49790   1.000
    Zr98    Zr   0.12502   0.94779   0.50232   1.000
    Zr99    Zr   0.62504   0.94779   0.50232   1.000
    Zr100   Zr   0.37514   0.49698   0.05323   1.000
    Zr101   Zr   0.87516   0.49698   0.05323   1.000
    Zr102   Zr   0.12513   0.50116   0.94933   1.000
    Zr103   Zr   0.62514   0.50116   0.94933   1.000
    Zr104   Zr   0.37501   0.97150   0.97044   1.000
    Zr105   Zr   0.87503   0.97150   0.97044   1.000
    Zr106   Zr   0.12500   0.03053   0.02880   1.000
    Zr107   Zr   0.62502   0.03053   0.02880   1.000
    O108    O    0.27339   0.54544   0.95063   1.000
    O109    O    0.18753   0.50153   0.97466   1.000
    O110    O    0.77341   0.54544   0.95063   1.000
    O111    O    0.68755   0.50153   0.97466   1.000
    O112    O    0.02349   0.54292   0.01068   1.000
    O113    O    0.93765   0.49941   0.02661   1.000
    O114    O    0.52351   0.54292   0.01068   1.000
    O115    O    0.43765   0.49941   0.02661   1.000
    O116    O    0.02361   0.94505   0.01884   1.000
    O117    O    0.93754   0.98478   0.98642   1.000
    O118    O    0.56254   0.01429   0.01563   1.000
    O119    O    0.52362   0.94505   0.01883   1.000
    O120    O    0.43754   0.98478   0.98645   1.000
    O121    O    0.77353   0.98189   0.05552   1.000
    O122    O    0.18747   0.01423   0.01568   1.000
    O123    O    0.27352   0.98189   0.05552   1.000
    O124    O    0.12503   0.05572   0.01935   1.000
    O125    O    0.62504   0.05572   0.01935   1.000
    O126    O    0.08583   0.59594   0.02339   1.000
    O127    O    0.58584   0.59594   0.02339   1.000
    O128    O    0.16375   0.59524   0.02454   1.000
    O129    O    0.66376   0.59524   0.02454   1.000
    O130    O    0.58612   0.87862   0.03597   1.000
    O131    O    0.08610   0.87862   0.03601   1.000
    O132    O    0.16401   0.87852   0.03616   1.000
    O133    O    0.66402   0.87852   0.03616   1.000
    O134    O    0.87525   0.47747   0.07697   1.000
    O135    O    0.37524   0.47747   0.07697   1.000
    O136    O    0.66419   0.40224   0.11552   1.000
    O137    O    0.16417   0.40224   0.11552   1.000
    O138    O    0.08612   0.40259   0.11567   1.000
    O139    O    0.58613   0.40259   0.11567   1.000
    O140    O    0.41400   0.96517   0.12185   1.000
    O141    O    0.91401   0.96516   0.12185   1.000
    O142    O    0.33608   0.96514   0.12187   1.000
    O143    O    0.83609   0.96514   0.12187   1.000
    O144    O    0.66396   0.11416   0.40090   1.000
    O145    O    0.58600   0.11416   0.40092   1.000
    O146    O    0.16395   0.11416   0.40090   1.000
    O147    O    0.08598   0.11416   0.40092   1.000
    O148    O    0.83601   0.97489   0.40430   1.000
    O149    O    0.91408   0.97487   0.40432   1.000
    O150    O    0.33599   0.97489   0.40630   1.000
    O151    O    0.41407   0.97487   0.40632   1.000
    O152    O    0.27356   0.98793   0.45935   1.000
    O153    O    0.77358   0.98793   0.45935   1.000
    O154    O    0.47648   0.98791   0.45937   1.000
    O155    O    0.97648   0.98791   0.45937   1.000
    O156    O    0.87500   0.07591   0.47869   1.000
    O157    O    0.37498   0.07591   0.47869   1.000
    O158    O    0.31258   0.02585   0.49899   1.000
    O159    O    0.93743   0.02585   0.49900   1.000
    O160    O    0.68761   0.97374   0.50120   1.000
    O161    O    0.18759   0.97374   0.50120   1.000
    O162    O    0.62506   0.92378   0.52130   1.000
    O163    O    0.12505   0.92378   0.52130   1.000
    O164    O    0.58598   0.02459   0.59386   1.000
    O165    O    0.08596   0.02459   0.59386   1.000
    O166    O    0.66406   0.02453   0.59390   1.000
    O167    O    0.16405   0.02453   0.59390   1.000
    O168    O    0.83610   0.88561   0.59951   1.000
    O169    O    0.33608   0.88561   0.59953   1.000
    O170    O    0.91403   0.88560   0.59953   1.000
    O171    O    0.41402   0.88560   0.59954   1.000
    O172    O    0.58597   0.02982   0.88105   1.000
    O173    O    0.66401   0.02971   0.88111   1.000
    O174    O    0.08595   0.02982   0.88105   1.000
    O175    O    0.16399   0.02971   0.88111   1.000
    O176    O    0.91380   0.60028   0.88729   1.000
    O177    O    0.83586   0.60111   0.88785   1.000
    O178    O    0.41378   0.60028   0.88729   1.000
    O179    O    0.33585   0.60111   0.88785   1.000
    O180    O    0.37498   0.98052   0.94529   1.000
    O181    O    0.87499   0.98052   0.94529   1.000
    O182    O    0.12525   0.48253   0.94335   1.000
    O183    O    0.62526   0.48253   0.94335   1.000
    O184    O    0.41397   0.11977   0.97004   1.000
    O185    O    0.33591   0.11975   0.97006   1.000
    O186    O    0.91399   0.11977   0.97005   1.000
    O187    O    0.83593   0.11974   0.97006   1.000
    O188    O    0.83613   0.40789   0.97377   1.000
    O189    O    0.91419   0.40736   0.97445   1.000
    O190    O    0.33611   0.40789   0.97375   1.000
    O191    O    0.41417   0.40736   0.97445   1.000
    O192    O    0.47642   0.94920   0.54343   1.000
    O193    O    0.97642   0.94920   0.54343   1.000
    O194    O    0.47651   0.98198   0.05546   1.000
    O195    O    0.97651   0.98198   0.05542   1.000
    O196    O    0.22655   0.05034   0.45679   1.000
    O197    O    0.72656   0.05034   0.45679   1.000
    O198    O    0.22663   0.01160   0.54079   1.000
    O199    O    0.72664   0.01160   0.54079   1.000
    O200    O    0.22647   0.01341   0.94858   1.000
    O201    O    0.72649   0.01341   0.94858   1.000
    O202    O    0.27354   0.46129   0.98720   1.000
    O203    O    0.77355   0.46129   0.98722   1.000
    O204    O    0.27341   0.05213   0.98673   1.000
    O205    O    0.77343   0.05213   0.98673   1.000
    O206    O    0.02363   0.45867   0.05135   1.000
    O207    O    0.52364   0.45867   0.05135   1.000
    O208    O    0.02343   0.05034   0.45682   1.000
    O209    O    0.52344   0.05034   0.45682   1.000
    O210    O    0.02338   0.01166   0.54075   1.000
    O211    O    0.52340   0.01166   0.54075   1.000
    O212    O    0.02349   0.01358   0.94844   1.000
    O213    O    0.52351   0.01358   0.94847   1.000
    O214    O    0.27364   0.94922   0.54341   1.000
    O215    O    0.77365   0.94922   0.54341   1.000
    O216    O    0.22658   0.45835   0.05120   1.000
    O217    O    0.72660   0.45835   0.05120   1.000
    O218    O    0.22631   0.54225   0.01183   1.000
    O219    O    0.72633   0.54226   0.01183   1.000
    O220    O    0.22645   0.94490   0.01907   1.000
    O221    O    0.72646   0.94490   0.01907   1.000
    O222    O    0.47644   0.54458   0.95006   1.000
    O223    O    0.97644   0.54458   0.95006   1.000
    O224    O    0.47671   0.46073   0.98790   1.000
    O225    O    0.97671   0.46073   0.98790   1.000
    O226    O    0.47654   0.05222   0.98667   1.000
    O227    O    0.97654   0.05222   0.98663   1.000
    O228    O    0.43743   0.02585   0.49900   1.000
    O229    O    0.81260   0.02585   0.49899   1.000
    O230    O    0.06243   0.97374   0.50121   1.000
    O231    O    0.56245   0.97374   0.50121   1.000
    O232    O    0.31254   0.49945   0.02661   1.000
    O233    O    0.81255   0.49945   0.02661   1.000
    O234    O    0.06263   0.50150   0.97466   1.000
    O235    O    0.56265   0.50150   0.97466   1.000
    O236    O    0.31247   0.98472   0.98650   1.000
    O237    O    0.81249   0.98472   0.98650   1.000
    O238    O    0.06253   0.01429   0.01560   1.000
    O239    O    0.68748   0.01423   0.01568   1.000
    N240    N    0.37492   0.26620   0.96708   1.000
    O241    O    0.37497   0.31420   0.96895   1.000
    O242    O    0.37492   0.21712   0.96737   1.000
    N243    N    0.12500   0.25923   0.25928   1.000
    O244    O    0.12504   0.30773   0.21096   1.000
    O245    O    0.12498   0.21043   0.30725   1.000
    N246    N    0.12500   0.03230   0.73474   1.000
    O247    O    0.12500   0.03015   0.68696   1.000
    O248    O    0.12499   0.03213   0.78379   1.000
    N249    N    0.87506   0.96454   0.26686   1.000
    O250    O    0.87506   0.96393   0.21835   1.000
    O251    O    0.87505   0.96753   0.31319   1.000
    N252    N    0.62501   0.03230   0.73474   1.000
    O253    O    0.62502   0.03015   0.68696   1.000
    O254    O    0.62500   0.03213   0.78379   1.000
    N255    N    0.62492   0.73411   0.03579   1.000
    O256    O    0.62488   0.68708   0.03234   1.000
    O257    O    0.62497   0.78241   0.03674   1.000
    N258    N    0.37505   0.96454   0.26687   1.000
    O259    O    0.37504   0.96753   0.31420   1.000
    O260    O    0.37505   0.96393   0.21836   1.000
    N261    N    0.87493   0.26621   0.96708   1.000
    O262    O    0.87493   0.21712   0.96737   1.000
    O263    O    0.87498   0.31420   0.96895   1.000
    N264    N    0.12491   0.73411   0.03578   1.000
    O265    O    0.12487   0.68708   0.03233   1.000
    O266    O    0.12496   0.78241   0.03674   1.000
    N267    N    0.37497   0.74178   0.74247   1.000
    O268    O    0.37493   0.69401   0.79128   1.000
    O269    O    0.37501   0.79012   0.69408   1.000
    N270    N    0.62501   0.25922   0.25928   1.000
    O271    O    0.62499   0.21043   0.30725   1.000
    O272    O    0.62505   0.30773   0.21096   1.000
    N273    N    0.87498   0.74178   0.74247   1.000
    O274    O    0.87502   0.79012   0.69407   1.000
    O275    O    0.87494   0.69401   0.79128   1.000
loop_
    _geom_bond_atom_site_label_1
    _geom_bond_atom_site_label_2
    _geom_bond_distance
    _geom_bond_site_symmetry_2
    _ccdc_geom_bond_type
    Zr4    O108      1.09372  1_554   S
    Zr60   O108      1.09372      .   S
    Zr4    O109      1.07020  1_554   S
    Zr102  O109      1.07020      .   S
    Zr5    O110      1.09371  1_554   S
    Zr61   O110      1.09371      .   S
    Zr5    O111      1.07020  1_554   S
    Zr103  O111      1.07020      .   S
    Zr6    O112      1.09297      .   S
    Zr68   O112      1.09297      .   S
    Zr6    O113      1.07146  1_455   S
    Zr101  O113      1.07146      .   S
    Zr7    O114      1.09297      .   S
    Zr69   O114      1.09297      .   S
    Zr7    O115      1.07164      .   S
    Zr100  O115      1.07164      .   S
    Zr8    O116      1.09350      .   S
    Zr70   O116      1.09350      .   S
    Zr8    O117      1.06893  1_454   S
    Zr105  O117      1.06893      .   S
    Zr9    O118      1.07000  1_565   S
    Zr107  O118      1.07000      .   S
    Zr9    O119      1.09383      .   S
    Zr71   O119      1.09383      .   S
    Zr9    O120      1.06946  1_554   S
    Zr104  O120      1.06946      .   S
    Zr11   O121      1.09361      .   S
    Zr83   O121      1.09361      .   S
    Zr10   O122      1.07003  1_565   S
    Zr106  O122      1.07003      .   S
    Zr10   O123      1.09361      .   S
    Zr82   O123      1.09361      .   S
    Zr20   O124      0.48747      .   S
    Zr106  O124      0.48747      .   S
    Zr21   O125      0.48747      .   S
    Zr107  O125      0.48747      .   S
    Zr68   O126      0.63753      .   S
    Zr44   O126      0.63753      .   S
    Zr69   O127      0.63753      .   S
    Zr45   O127      0.63753      .   S
    Zr86   O128      0.63745      .   S
    Zr44   O128      0.63745      .   S
    Zr87   O129      0.63743      .   S
    Zr45   O129      0.63743      .   S
    Zr71   O130      0.63725      .   S
    Zr47   O130      0.63725      .   S
    Zr70   O131      0.63745      .   S
    Zr46   O131      0.63745      .   S
    Zr88   O132      0.63743      .   S
    Zr46   O132      0.63743      .   S
    Zr89   O133      0.63743      .   S
    Zr47   O133      0.63743      .   S
    Zr101  O134      0.48736      .   S
    Zr13   O134      0.48736      .   S
    Zr100  O135      0.48736      .   S
    Zr12   O135      0.48736      .   S
    Zr85   O136      0.63810      .   S
    Zr43   O136      0.63810      .   S
    Zr84   O137      0.63810      .   S
    Zr42   O137      0.63810      .   S
    Zr66   O138      0.63815      .   S
    Zr42   O138      0.63815      .   S
    Zr67   O139      0.63815      .   S
    Zr43   O139      0.63815      .   S
    Zr52   O140      0.63752      .   S
    Zr28   O140      0.63752      .   S
    Zr53   O141      0.63751      .   S
    Zr29   O141      0.63751      .   S
    Zr82   O142      0.63754      .   S
    Zr28   O142      0.63754      .   S
    Zr83   O143      0.63753      .   S
    Zr29   O143      0.63753      .   S
    Zr31   O144      0.63754      .   S
    Zr55   O144      0.63754      .   S
    Zr31   O145      0.63768      .   S
    Zr73   O145      0.63768      .   S
    Zr30   O146      0.63754      .   S
    Zr54   O146      0.63754      .   S
    Zr30   O147      0.63769      .   S
    Zr72   O147      0.63769      .   S
    Zr27   O148      0.65848      .   S
    Zr81   O148      0.65848      .   S
    Zr27   O149      0.65848      .   S
    Zr51   O149      0.65848      .   S
    Zr26   O150      0.63772      .   S
    Zr80   O150      0.63772      .   S
    Zr26   O151      0.63772      .   S
    Zr50   O151      0.63772      .   S
    Zr80   O152      1.10042      .   S
    Zr2    O152      1.10042      .   S
    Zr81   O153      1.10042      .   S
    Zr3    O153      1.10042      .   S
    Zr50   O154      1.10012      .   S
    Zr1    O154      1.10012      .   S
    Zr51   O155      1.10006      .   S
    Zr0    O155      1.10006      .   S
    Zr17   O156      0.48731      .   S
    Zr97   O156      0.48731      .   S
    Zr16   O157      0.48732      .   S
    Zr96   O157      0.48732      .   S
    Zr96   O158      1.07222      .   S
    Zr2    O158      1.07222  1_565   S
    Zr97   O159      1.07206      .   S
    Zr0    O159      1.07206  1_565   S
    Zr3    O160      1.07150      .   S
    Zr99   O160      1.07150      .   S
    Zr2    O161      1.07151      .   S
    Zr98   O161      1.07151      .   S
    Zr99   O162      0.48743      .   S
    Zr15   O162      0.48743      .   S
    Zr98   O163      0.48743      .   S
    Zr14   O163      0.48743      .   S
    Zr75   O164      0.63741      .   S
    Zr33   O164      0.63741      .   S
    Zr74   O165      0.63741      .   S
    Zr32   O165      0.63741      .   S
    Zr57   O166      0.63738      .   S
    Zr33   O166      0.63738      .   S
    Zr56   O167      0.63739      .   S
    Zr32   O167      0.63739      .   S
    Zr79   O168      0.63808      .   S
    Zr25   O168      0.63808      .   S
    Zr78   O169      0.63816      .   S
    Zr24   O169      0.63816      .   S
    Zr49   O170      0.63806      .   S
    Zr25   O170      0.63806      .   S
    Zr48   O171      0.63812      .   S
    Zr24   O171      0.63812      .   S
    Zr35   O172      0.63857      .   S
    Zr77   O172      0.63857      .   S
    Zr35   O173      0.63857      .   S
    Zr59   O173      0.63857      .   S
    Zr34   O174      0.63857      .   S
    Zr76   O174      0.63857      .   S
    Zr34   O175      0.63858      .   S
    Zr58   O175      0.63858      .   S
    Zr37   O176      0.63702      .   S
    Zr91   O176      0.63702      .   S
    Zr37   O177      0.63707      .   S
    Zr61   O177      0.63707      .   S
    Zr36   O178      0.63702      .   S
    Zr90   O178      0.63702      .   S
    Zr36   O179      0.63706      .   S
    Zr60   O179      0.63706      .   S
    Zr22   O180      0.48749      .   S
    Zr104  O180      0.48749      .   S
    Zr23   O181      0.48749      .   S
    Zr105  O181      0.48749      .   S
    Zr18   O182      0.48741      .   S
    Zr102  O182      0.48741      .   S
    Zr19   O183      0.48740      .   S
    Zr103  O183      0.48740      .   S
    Zr40   O184      0.63812      .   S
    Zr94   O184      0.63812      .   S
    Zr40   O185      0.63803      .   S
    Zr64   O185      0.63803      .   S
    Zr41   O186      0.63812      .   S
    Zr95   O186      0.63812      .   S
    Zr41   O187      0.63804      .   S
    Zr65   O187      0.63804      .   S
    Zr39   O188      0.63819      .   S
    Zr63   O188      0.63819      .   S
    Zr39   O189      0.63817      .   S
    Zr93   O189      0.63817      .   S
    Zr38   O190      0.63809      .   S
    Zr62   O190      0.63809      .   S
    Zr38   O191      0.63819      .   S
    Zr92   O191      0.63819      .   S
    Zr48   O192      1.10608      .   S
    Zr1    O192      1.10608      .   S
    Zr49   O193      1.10601      .   S
    Zr0    O193      1.10601      .   S
    Zr52   O194      1.09402      .   S
    Zr9    O194      1.09402      .   S
    Zr53   O195      1.09465      .   S
    Zr8    O195      1.09465  1_455   S
    Zr54   O196      1.10865      .   S
    Zr2    O196      1.10865  1_565   S
    Zr55   O197      1.10866      .   S
    Zr3    O197      1.10866  1_565   S
    Zr56   O198      1.10248      .   S
    Zr2    O198      1.10248  1_565   S
    Zr57   O199      1.10247      .   S
    Zr3    O199      1.10247  1_565   S
    Zr58   O200      1.11606      .   S
    Zr10   O200      1.11606  1_564   S
    Zr59   O201      1.11605      .   S
    Zr11   O201      1.11605  1_564   S
    Zr62   O202      1.11392      .   S
    Zr4    O202      1.11392  1_554   S
    Zr63   O203      1.11363      .   S
    Zr5    O203      1.11363  1_554   S
    Zr64   O204      1.11957      .   S
    Zr10   O204      1.11957  1_564   S
    Zr65   O205      1.11958      .   S
    Zr11   O205      1.11958  1_564   S
    Zr66   O206      1.11592      .   S
    Zr6    O206      1.11592      .   S
    Zr67   O207      1.11592      .   S
    Zr7    O207      1.11592      .   S
    Zr72   O208      1.10862      .   S
    Zr0    O208      1.10862  1_665   S
    Zr73   O209      1.10862      .   S
    Zr1    O209      1.10862  1_565   S
    Zr74   O210      1.10231      .   S
    Zr0    O210      1.10231  1_665   S
    Zr75   O211      1.10232      .   S
    Zr1    O211      1.10232  1_565   S
    Zr76   O212      1.11556      .   S
    Zr8    O212      1.11556  1_564   S
    Zr77   O213      1.11626      .   S
    Zr9    O213      1.11626  1_564   S
    Zr78   O214      1.10576      .   S
    Zr2    O214      1.10576      .   S
    Zr79   O215      1.10576      .   S
    Zr3    O215      1.10576      .   S
    Zr84   O216      1.11676      .   S
    Zr4    O216      1.11676      .   S
    Zr85   O217      1.11676      .   S
    Zr5    O217      1.11676      .   S
    Zr86   O218      1.09492      .   S
    Zr4    O218      1.09492      .   S
    Zr87   O219      1.09493      .   S
    Zr5    O219      1.09493      .   S
    Zr88   O220      1.09384      .   S
    Zr10   O220      1.09384      .   S
    Zr89   O221      1.09383      .   S
    Zr11   O221      1.09383      .   S
    Zr90   O222      1.09518      .   S
    Zr7    O222      1.09518  1_554   S
    Zr91   O223      1.09512      .   S
    Zr6    O223      1.09512  1_454   S
    Zr92   O224      1.11351      .   S
    Zr7    O224      1.11351  1_554   S
    Zr93   O225      1.11344      .   S
    Zr6    O225      1.11344  1_454   S
    Zr94   O226      1.11906      .   S
    Zr9    O226      1.11906  1_564   S
    Zr95   O227      1.11916      .   S
    Zr8    O227      1.11916  1_464   S
    Zr96   O228      1.07225      .   S
    Zr1    O228      1.07225  1_565   S
    Zr97   O229      1.07222      .   S
    Zr3    O229      1.07222  1_565   S
    Zr98   O230      1.07161      .   S
    Zr0    O230      1.07161  1_655   S
    Zr99   O231      1.07161      .   S
    Zr1    O231      1.07161      .   S
    Zr100  O232      1.07246      .   S
    Zr4    O232      1.07246      .   S
    Zr101  O233      1.07245      .   S
    Zr5    O233      1.07245      .   S
    Zr102  O234      1.07136      .   S
    Zr6    O234      1.07136  1_554   S
    Zr103  O235      1.07136      .   S
    Zr7    O235      1.07136  1_554   S
    Zr104  O236      1.06965      .   S
    Zr10   O236      1.06965  1_554   S
    Zr105  O237      1.06964      .   S
    Zr11   O237      1.06964  1_554   S
    Zr106  O238      1.07032      .   S
    Zr8    O238      1.07032  1_565   S
    Zr107  O239      1.07004      .   S
    Zr11   O239      1.07004  1_565   S
    N240   O241      1.07581      .   S
    Zr38   O241      1.82534      .   S
    N240   O242      1.07612      .   S
    Zr40   O242      1.82618      .   S
    N243   O244      1.07622      .   S
    Zr42   O244      1.82628      .   S
    N243   O245      1.07574      .   S
    Zr30   O245      1.82521      .   S
    N246   O247      1.07377      .   S
    Zr32   O247      1.82316      .   S
    N246   O248      1.07592      .   S
    Zr34   O248      1.82506      .   S
    N249   O250      1.07237      .   S
    Zr29   O250      1.82012      .   S
    N249   O251      1.05168      .   S
    Zr27   O251      1.75670      .   S
    N252   O253      1.07384      .   S
    Zr33   O253      1.82324      .   S
    N252   O254      1.07586      .   S
    Zr35   O254      1.82501      .   S
    N255   O256      1.07288      .   S
    Zr45   O256      1.82079      .   S
    N255   O257      1.07240      .   S
    Zr47   O257      1.82025      .   S
    N258   O259      1.07350      .   S
    Zr26   O259      1.82234      .   S
    N258   O260      1.07247      .   S
    Zr28   O260      1.82019      .   S
    N261   O262      1.07610      .   S
    Zr41   O262      1.82611      .   S
    N261   O263      1.07586      .   S
    Zr39   O263      1.82542      .   S
    N264   O265      1.07282      .   S
    Zr44   O265      1.82071      .   S
    N264   O266      1.07244      .   S
    Zr46   O266      1.82029      .   S
    N267   O268      1.07374      .   S
    Zr36   O268      1.82280      .   S
    N267   O269      1.07536      .   S
    Zr24   O269      1.82416      .   S
    N270   O271      1.07574      .   S
    Zr31   O271      1.82520      .   S
    N270   O272      1.07622      .   S
    Zr43   O272      1.82628      .   S
    N273   O274      1.07541      .   S
    Zr25   O274      1.82438      .   S
    N273   O275      1.07377      .   S
    Zr37   O275      1.82282      .   S
