# CIF file generated by openbabel 2.4.90, see http://openbabel.sf.net
data_I
_chemical_name_common ''
_cell_length_a 14.609
_cell_length_b 21.986
_cell_length_c 21.972
_cell_angle_alpha 60.764
_cell_angle_beta 90.014
_cell_angle_gamma 89.993
_space_group_name_H-M_alt 'P 1'
_space_group_name_Hall 'P 1'
loop_
    _symmetry_equiv_pos_as_xyz
    x,y,z
loop_
    _atom_site_label
    _atom_site_type_symbol
    _atom_site_fract_x
    _atom_site_fract_y
    _atom_site_fract_z
    _atom_site_occupancy
    Zr0     Zr   0.99984   0.99968   0.50010   1.000
    Zr1     Zr   0.49986   0.99968   0.50010   1.000
    Zr2     Zr   0.25017   0.99969   0.50009   1.000
    Zr3     Zr   0.75018   0.99969   0.50009   1.000
    Zr4     Zr   0.24994   0.50191   0.00000   1.000
    Zr5     Zr   0.74995   0.50191   0.00000   1.000
    Zr6     Zr   0.00014   0.50184   0.00000   1.000
    Zr7     Zr   0.50015   0.50184   0.00000   1.000
    Zr8     Zr   0.00005   0.99806   0.00240   1.000
    Zr9     Zr   0.50006   0.99806   0.00247   1.000
    Zr10    Zr   0.24993   0.99795   0.00256   1.000
    Zr11    Zr   0.74994   0.99794   0.00256   1.000
    N12     N    0.37492   0.26620   0.96708   1.000
    N13     N    0.12500   0.25923   0.25928   1.000
    N14     N    0.12500   0.03230   0.73474   1.000
    N15     N    0.87506   0.96454   0.26686   1.000
    N16     N    0.62501   0.03230   0.73474   1.000
    N17     N    0.62492   0.73411   0.03579   1.000
    N18     N    0.37505   0.96454   0.26687   1.000
    N19     N    0.87493   0.26621   0.96708   1.000
    N20     N    0.12491   0.73411   0.03578   1.000
    N21     N    0.37497   0.74178   0.74247   1.000
    N22     N    0.62501   0.25922   0.25928   1.000
    N23     N    0.87498   0.74178   0.74247   1.000
    C24     C    0.62517   0.40666   0.11125   1.000
    O25     O    0.62511   0.35719   0.16111   1.000
    O26     O    0.57441   0.43266   0.08130   1.000
    O27     O    0.67588   0.43250   0.08123   1.000
    C28     C    0.37516   0.41180   0.97444   1.000
    O29     O    0.32435   0.43654   0.98082   1.000
    O30     O    0.37507   0.36300   0.97169   1.000
    O31     O    0.42593   0.43626   0.98117   1.000
    C32     C    0.12478   0.59149   0.02348   1.000
    O33     O    0.07414   0.56721   0.01708   1.000
    O34     O    0.17555   0.56687   0.01766   1.000
    O35     O    0.12482   0.63929   0.02791   1.000
    C36     C    0.37480   0.59651   0.89195   1.000
    O37     O    0.42562   0.57054   0.92101   1.000
    O38     O    0.32410   0.57097   0.92129   1.000
    O39     O    0.37486   0.64526   0.84161   1.000
    C40     C    0.12515   0.40666   0.11125   1.000
    O41     O    0.07439   0.43266   0.08130   1.000
    O42     O    0.17587   0.43250   0.08123   1.000
    O43     O    0.12510   0.35719   0.16111   1.000
    C44     C    0.12525   0.48253   0.94335   1.000
    O45     O    0.15639   0.49203   0.95901   1.000
    O46     O    0.09394   0.49201   0.95901   1.000
    C47     C    0.87525   0.47747   0.07697   1.000
    O48     O    0.90645   0.48844   0.05179   1.000
    O49     O    0.84390   0.48846   0.05179   1.000
    C50     C    0.62526   0.48253   0.94335   1.000
    O51     O    0.65640   0.49203   0.95901   1.000
    O52     O    0.59395   0.49201   0.95901   1.000
    C53     C    0.87518   0.41180   0.97445   1.000
    O54     O    0.87508   0.36300   0.97170   1.000
    O55     O    0.82436   0.43655   0.98083   1.000
    O56     O    0.92594   0.43626   0.98117   1.000
    C57     C    0.87482   0.59651   0.89195   1.000
    O58     O    0.82411   0.57097   0.92129   1.000
    O59     O    0.92563   0.57054   0.92101   1.000
    O60     O    0.87488   0.64526   0.84161   1.000
    C61     C    0.62480   0.59149   0.02348   1.000
    O62     O    0.67556   0.56687   0.01766   1.000
    O63     O    0.57415   0.56721   0.01708   1.000
    O64     O    0.62484   0.63929   0.02791   1.000
    C65     C    0.37524   0.47747   0.07697   1.000
    O66     O    0.40644   0.48844   0.05179   1.000
    O67     O    0.34389   0.48846   0.05179   1.000
    C68     C    0.62506   0.92378   0.52130   1.000
    O69     O    0.65634   0.94876   0.51125   1.000
    O70     O    0.59376   0.94876   0.51126   1.000
    C71     C    0.12505   0.92378   0.52130   1.000
    O72     O    0.15632   0.94876   0.51125   1.000
    O73     O    0.09374   0.94876   0.51126   1.000
    C74     C    0.62502   0.02423   0.58974   1.000
    O75     O    0.57421   0.01794   0.56525   1.000
    O76     O    0.62502   0.02719   0.63835   1.000
    O77     O    0.67583   0.01791   0.56526   1.000
    C78     C    0.87504   0.97531   0.40909   1.000
    O79     O    0.82431   0.98162   0.43422   1.000
    O80     O    0.92576   0.98161   0.43423   1.000
    O81     O    0.87505   0.97142   0.36114   1.000
    C82     C    0.62498   0.10977   0.40512   1.000
    O83     O    0.57421   0.08006   0.43097   1.000
    O84     O    0.67577   0.08006   0.43096   1.000
    O85     O    0.62499   0.16010   0.35618   1.000
    C86     C    0.12500   0.02423   0.58974   1.000
    O87     O    0.12500   0.02719   0.63835   1.000
    O88     O    0.07419   0.01794   0.56525   1.000
    O89     O    0.17582   0.01792   0.56526   1.000
    C90     C    0.37498   0.07591   0.47869   1.000
    O91     O    0.34378   0.05088   0.48884   1.000
    O92     O    0.40621   0.05088   0.48885   1.000
    C93     C    0.37503   0.97531   0.41042   1.000
    O94     O    0.32429   0.98162   0.43488   1.000
    O95     O    0.37504   0.97142   0.36231   1.000
    O96     O    0.42575   0.98161   0.43490   1.000
    C97     C    0.87506   0.88999   0.59526   1.000
    O98     O    0.82436   0.91960   0.56934   1.000
    O99     O    0.87504   0.84005   0.64466   1.000
    O100    O    0.92574   0.91959   0.56935   1.000
    C101    C    0.87500   0.07591   0.47869   1.000
    O102    O    0.90621   0.05088   0.48885   1.000
    O103    O    0.84380   0.05088   0.48884   1.000
    C104    C    0.37505   0.88999   0.59527   1.000
    O105    O    0.42574   0.91959   0.56935   1.000
    O106    O    0.32434   0.91960   0.56934   1.000
    O107    O    0.37503   0.84005   0.64467   1.000
    C108    C    0.12497   0.10977   0.40512   1.000
    O109    O    0.07420   0.08006   0.43097   1.000
    O110    O    0.17576   0.08006   0.43096   1.000
    O111    O    0.12497   0.16010   0.35618   1.000
    C112    C    0.12503   0.05572   0.01935   1.000
    O113    O    0.15625   0.03498   0.01752   1.000
    O114    O    0.09378   0.03501   0.01748   1.000
    C115    C    0.37495   0.11529   0.97033   1.000
    O116    O    0.37493   0.16620   0.96885   1.000
    O117    O    0.42574   0.08375   0.97850   1.000
    O118    O    0.32418   0.08371   0.97853   1.000
    C119    C    0.62507   0.88303   0.03584   1.000
    O120    O    0.62502   0.83272   0.03629   1.000
    O121    O    0.67577   0.91396   0.02745   1.000
    O122    O    0.57435   0.91404   0.02734   1.000
    C123    C    0.12506   0.88303   0.03587   1.000
    O124    O    0.17575   0.91396   0.02747   1.000
    O125    O    0.12501   0.83272   0.03630   1.000
    O126    O    0.07433   0.91404   0.02736   1.000
    C127    C    0.87496   0.11529   0.97033   1.000
    O128    O    0.92575   0.08375   0.97848   1.000
    O129    O    0.82419   0.08371   0.97853   1.000
    O130    O    0.87495   0.16620   0.96885   1.000
    C131    C    0.87499   0.98052   0.94529   1.000
    O132    O    0.90626   0.98265   0.96585   1.000
    O133    O    0.84374   0.98262   0.96589   1.000
    C134    C    0.87505   0.96539   0.11740   1.000
    O135    O    0.82429   0.97364   0.08646   1.000
    O136    O    0.87506   0.96466   0.16787   1.000
    O137    O    0.92578   0.97368   0.08641   1.000
    C138    C    0.37504   0.96539   0.11740   1.000
    O139    O    0.37504   0.96466   0.16788   1.000
    O140    O    0.32428   0.97364   0.08646   1.000
    O141    O    0.42577   0.97368   0.08643   1.000
    C142    C    0.62499   0.02951   0.88557   1.000
    O143    O    0.67574   0.02146   0.91707   1.000
    O144    O    0.62500   0.03082   0.83468   1.000
    O145    O    0.57425   0.02154   0.91702   1.000
    C146    C    0.12497   0.02951   0.88557   1.000
    O147    O    0.12498   0.03082   0.83468   1.000
    O148    O    0.07423   0.02154   0.91700   1.000
    O149    O    0.17572   0.02146   0.91707   1.000
    C150    C    0.37498   0.98052   0.94529   1.000
    O151    O    0.40626   0.98265   0.96587   1.000
    O152    O    0.34372   0.98262   0.96589   1.000
    C153    C    0.62504   0.05572   0.01935   1.000
    O154    O    0.59379   0.03501   0.01749   1.000
    O155    O    0.65626   0.03498   0.01752   1.000
loop_
    _geom_bond_atom_site_label_1
    _geom_bond_atom_site_label_2
    _geom_bond_distance
    _geom_bond_site_symmetry_2
    _ccdc_geom_bond_type
    C24    O25       1.10412      .   S
    N22    O25       2.18032      .   S
    C24    O26       0.97060      .   S
    Zr7    O26       2.00639      .   S
    C24    O27       0.97012      .   S
    Zr5    O27       2.00641      .   S
    C28    O29       0.97014      .   S
    Zr4    O29       2.00405  1_554   S
    C28    O30       1.10361      .   S
    N12    O30       2.17937      .   S
    C28    O31       0.96907      .   S
    Zr7    O31       2.00214  1_554   S
    C32    O33       0.96208      .   S
    Zr6    O33       1.97540      .   S
    C32    O34       0.96280      .   S
    Zr4    O34       1.97808      .   S
    C32    O35       1.10159      .   S
    N20    O35       2.17435      .   S
    C36    O37       0.96349      .   S
    Zr7    O37       1.97926  1_554   S
    C36    O38       0.96246      .   S
    Zr4    O38       1.97653  1_554   S
    C36    O39       1.10180      .   S
    N21    O39       2.17552      .   S
    C40    O41       0.97059      .   S
    Zr6    O41       2.00639      .   S
    C40    O42       0.97012      .   S
    Zr4    O42       2.00641      .   S
    C40    O43       1.10412      .   S
    N13    O43       2.18032      .   S
    C44    O45       0.66269      .   S
    Zr4    O45       1.70782  1_554   S
    C44    O46       0.66419      .   S
    Zr6    O46       1.71067  1_554   S
    C47    O48       0.66464      .   S
    Zr6    O48       1.71129  1_455   S
    C47    O49       0.66592      .   S
    Zr5    O49       1.71371      .   S
    C50    O51       0.66269      .   S
    Zr5    O51       1.70783  1_554   S
    C50    O52       0.66419      .   S
    Zr7    O52       1.71066  1_554   S
    C53    O54       1.10372      .   S
    N19    O54       2.17952      .   S
    C53    O55       0.97016      .   S
    Zr5    O55       2.00382  1_554   S
    C53    O56       0.96891      .   S
    Zr6    O56       2.00186  1_454   S
    C57    O58       0.96246      .   S
    Zr5    O58       1.97653  1_554   S
    C57    O59       0.96341      .   S
    Zr6    O59       1.97908  1_454   S
    C57    O60       1.10181      .   S
    N23    O60       2.17557      .   S
    C61    O62       0.96279      .   S
    Zr5    O62       1.97809      .   S
    C61    O63       0.96208      .   S
    Zr7    O63       1.97540      .   S
    C61    O64       1.10162      .   S
    N17    O64       2.17444      .   S
    C65    O66       0.66471      .   S
    Zr7    O66       1.71154      .   S
    C65    O67       0.66592      .   S
    Zr4    O67       1.71372      .   S
    C68    O69       0.66390      .   S
    Zr3    O69       1.71045      .   S
    C68    O70       0.66405      .   S
    Zr1    O70       1.71074      .   S
    C71    O72       0.66390      .   S
    Zr2    O72       1.71046      .   S
    C71    O73       0.66406      .   S
    Zr0    O73       1.71075  1_655   S
    C74    O75       0.96553      .   S
    Zr1    O75       1.98765  1_565   S
    C74    O76       1.10128      .   S
    N16    O76       2.17507      .   S
    C74    O77       0.96573      .   S
    Zr3    O77       1.98807  1_565   S
    C78    O79       0.97393      .   S
    Zr3    O79       1.99686      .   S
    C78    O80       0.97367      .   S
    Zr0    O80       1.99618      .   S
    C78    O81       1.09781      .   S
    N15    O81       2.14944      .   S
    C82    O83       0.96824      .   S
    Zr1    O83       1.99726  1_565   S
    C82    O84       0.96806      .   S
    Zr3    O84       1.99706  1_565   S
    C82    O85       1.10377      .   S
    N22    O85       2.17949      .   S
    C86    O87       1.10125      .   S
    N14    O87       2.17497      .   S
    C86    O88       0.96553      .   S
    Zr0    O88       1.98765  1_665   S
    C86    O89       0.96572      .   S
    Zr2    O89       1.98807  1_565   S
    C90    O91       0.66375      .   S
    Zr2    O91       1.71097  1_565   S
    C90    O92       0.66382      .   S
    Zr1    O92       1.71108  1_565   S
    C93    O94       0.96467      .   S
    Zr2    O94       1.98485      .   S
    C93    O95       1.10140      .   S
    N18    O95       2.17485      .   S
    C93    O96       0.96449      .   S
    Zr1    O96       1.98433      .   S
    C97    O98       0.96675      .   S
    Zr3    O98       1.99279      .   S
    C97    O99       1.10427      .   S
    N23    O99       2.17966      .   S
    C97    O100      0.96665      .   S
    Zr0    O100      1.99287      .   S
    C101   O102      0.66374      .   S
    Zr0    O102      1.71082  1_565   S
    C101   O103      0.66375      .   S
    Zr3    O103      1.71097  1_565   S
    C104   O105      0.96676      .   S
    Zr1    O105      1.99307      .   S
    C104   O106      0.96679      .   S
    Zr2    O106      1.99284      .   S
    C104   O107      1.10427      .   S
    N21    O107      2.17960      .   S
    C108   O109      0.96824      .   S
    Zr0    O109      1.99726  1_665   S
    C108   O110      0.96805      .   S
    Zr2    O110      1.99705  1_565   S
    C108   O111      1.10377      .   S
    N13    O111      2.17949      .   S
    C112   O113      0.65998      .   S
    Zr10   O113      1.70451  1_565   S
    C112   O114      0.66023      .   S
    Zr8    O114      1.70508  1_565   S
    C115   O116      1.10393      .   S
    N12    O116      2.17993      .   S
    C115   O117      0.97050      .   S
    Zr9    O117      2.00887  1_564   S
    C115   O118      0.97083      .   S
    Zr10   O118      2.00979  1_564   S
    C119   O120      1.10133      .   S
    N17    O120      2.17356      .   S
    C119   O121      0.96059      .   S
    Zr11   O121      1.97406      .   S
    C119   O122      0.96142      .   S
    Zr9    O122      1.97532      .   S
    C123   O124      0.96054      .   S
    Zr10   O124      1.97401      .   S
    C123   O125      1.10152      .   S
    N20    O125      2.17379      .   S
    C123   O126      0.96139      .   S
    Zr8    O126      1.97496      .   S
    C127   O128      0.97048      .   S
    Zr8    O128      2.00893  1_464   S
    C127   O129      0.97083      .   S
    Zr11   O129      2.00980  1_564   S
    C127   O130      1.10390      .   S
    N19    O130      2.17989      .   S
    C131   O132      0.66007      .   S
    Zr8    O132      1.70357  1_454   S
    C131   O133      0.66038      .   S
    Zr11   O133      1.70460  1_554   S
    C134   O135      0.96131      .   S
    Zr11   O135      1.97487      .   S
    C134   O136      1.10138      .   S
    N15    O136      2.17361      .   S
    C134   O137      0.96179      .   S
    Zr8    O137      1.97644  1_455   S
    C138   O139      1.10144      .   S
    N18    O139      2.17376      .   S
    C138   O140      0.96132      .   S
    Zr10   O140      1.97487      .   S
    C138   O141      0.96164      .   S
    Zr9    O141      1.97569      .   S
    C142   O143      0.96967      .   S
    Zr11   O143      2.00522  1_564   S
    C142   O144      1.10429      .   S
    N16    O144      2.18005      .   S
    C142   O145      0.96946      .   S
    Zr9    O145      2.00508  1_564   S
    C146   O147      1.10432      .   S
    N14    O147      2.18014      .   S
    C146   O148      0.96922      .   S
    Zr8    O148      2.00414  1_564   S
    C146   O149      0.96968      .   S
    Zr10   O149      2.00522  1_564   S
    C150   O151      0.66042      .   S
    Zr9    O151      1.70449  1_554   S
    C150   O152      0.66038      .   S
    Zr10   O152      1.70461  1_554   S
    C153   O154      0.66008      .   S
    Zr9    O154      1.70459  1_565   S
    C153   O155      0.65998      .   S
    Zr11   O155      1.70452  1_565   S
