# CIF file generated by openbabel 2.4.90, see http://openbabel.sf.net
data_I
_chemical_name_common ''
_cell_length_a 15.345
_cell_length_b 15.371
_cell_length_c 22.383
_cell_angle_alpha 84.315
_cell_angle_beta 87.394
_cell_angle_gamma 81.031
_space_group_name_H-M_alt 'P 1'
_space_group_name_Hall 'P 1'
loop_
    _symmetry_equiv_pos_as_xyz
    x,y,z
loop_
    _atom_site_label
    _atom_site_type_symbol
    _atom_site_fract_x
    _atom_site_fract_y
    _atom_site_fract_z
    _atom_site_occupancy
    N0      N    0.31138   0.10716   0.75815   1.000
    N1      N    0.19848   0.87809   0.74395   1.000
    N2      N    0.80230   0.12194   0.25605   1.000
    N3      N    0.29954   0.61654   0.25920   1.000
    N4      N    0.70046   0.38381   0.74080   1.000
    N5      N    0.68862   0.89296   0.24189   1.000
    Zr6     Zr   0.69751   0.88361   0.74218   1.000
    O7      O    0.69576   0.88926   0.58986   1.000
    O8      O    0.69369   0.88370   0.89434   1.000
    Zr9     Zr   0.30253   0.11640   0.25781   1.000
    O10     O    0.30634   0.11634   0.10567   1.000
    O11     O    0.30426   0.11078   0.41015   1.000
    O12     O    0.69922   0.74197   0.74191   1.000
    O13     O    0.69741   0.02550   0.74143   1.000
    O14     O    0.83943   0.88067   0.74284   1.000
    O15     O    0.55589   0.88371   0.74276   1.000
    O16     O    0.44433   0.11632   0.25724   1.000
    O17     O    0.16080   0.11935   0.25716   1.000
    O18     O    0.30081   0.25813   0.25809   1.000
    O19     O    0.30263   0.97513   0.25857   1.000
loop_
    _geom_bond_atom_site_label_1
    _geom_bond_atom_site_label_2
    _geom_bond_distance
    _geom_bond_site_symmetry_2
    _ccdc_geom_bond_type
    Zr6    O7        3.40310      .   S
    N5     O7        7.78880      .   S
    Zr6    O8        3.40361      .   S
    N5     O8        7.79141  1_554   S
    Zr9    O10       3.40327      .   S
    N0     O10       7.79040  1_556   S
    Zr9    O11       3.40341      .   S
    N0     O11       7.78977      .   S
    Zr6    O12       2.17380      .   S
    N4     O12       5.50487      .   S
    Zr6    O13       2.17907  1_565   S
    N4     O13       5.51378      .   S
    Zr6    O14       2.17190      .   S
    N1     O14       5.50476  1_455   S
    Zr6    O15       2.17231      .   S
    N1     O15       5.49741      .   S
    N2     O16       5.50605      .   S
    Zr9    O16       2.17516      .   S
    N2     O17       5.49613  1_655   S
    Zr9    O17       2.16905      .   S
    N3     O18       5.50868      .   S
    Zr9    O18       2.17508      .   S
    N3     O19       5.51813      .   S
    Zr9    O19       2.16965  1_545   S
