# CIF file generated by openbabel 2.4.90, see http://openbabel.sf.net
data_I
_chemical_name_common ''
_cell_length_a 15.345
_cell_length_b 15.371
_cell_length_c 22.383
_cell_angle_alpha 84.315
_cell_angle_beta 87.394
_cell_angle_gamma 81.031
_space_group_name_H-M_alt 'P 1'
_space_group_name_Hall 'P 1'
loop_
    _symmetry_equiv_pos_as_xyz
    x,y,z
loop_
    _atom_site_label
    _atom_site_type_symbol
    _atom_site_fract_x
    _atom_site_fract_y
    _atom_site_fract_z
    _atom_site_occupancy
    N0      N    0.31138   0.10716   0.75815   1.000
    N1      N    0.19848   0.87809   0.74395   1.000
    N2      N    0.80230   0.12194   0.25605   1.000
    N3      N    0.29954   0.61654   0.25920   1.000
    N4      N    0.70046   0.38381   0.74080   1.000
    N5      N    0.68862   0.89296   0.24189   1.000
    Zr6     Zr   0.69751   0.88361   0.74218   1.000
    O7      O    0.69576   0.88926   0.58986   1.000
    O8      O    0.70168   0.74377   0.72782   1.000
    O9      O    0.69612   0.02788   0.72734   1.000
    O10     O    0.83975   0.88466   0.72876   1.000
    O11     O    0.55671   0.88400   0.72865   1.000
    O12     O    0.69676   0.74017   0.75600   1.000
    O13     O    0.69869   0.02312   0.75551   1.000
    O14     O    0.69369   0.88370   0.89434   1.000
    O15     O    0.83911   0.87668   0.75691   1.000
    O16     O    0.55508   0.88341   0.75686   1.000
    Zr17    Zr   0.30253   0.11640   0.25781   1.000
    O18     O    0.30634   0.11634   0.10567   1.000
    O19     O    0.16112   0.12333   0.24308   1.000
    O20     O    0.44515   0.11662   0.24313   1.000
    O21     O    0.30327   0.25993   0.24400   1.000
    O22     O    0.30135   0.97804   0.24449   1.000
    O23     O    0.30426   0.11078   0.41015   1.000
    O24     O    0.16047   0.11536   0.27124   1.000
    O25     O    0.44351   0.11601   0.27135   1.000
    O26     O    0.29835   0.25633   0.27218   1.000
    O27     O    0.30391   0.97222   0.27266   1.000
loop_
    _geom_bond_atom_site_label_1
    _geom_bond_atom_site_label_2
    _geom_bond_distance
    _geom_bond_site_symmetry_2
    _ccdc_geom_bond_type
    Zr6    O7        3.40310      .   S
    N5     O7        7.78880      .   S
    Zr6    O8        2.19537      .   S
    N4     O8        5.51469      .   S
    Zr6    O9        2.20641  1_565   S
    N4     O9        5.51993      .   S
    Zr6    O10       2.19211      .   S
    N1     O10       5.51520  1_455   S
    Zr6    O11       2.19433      .   S
    N1     O11       5.50643      .   S
    Zr6    O12       2.19760      .   S
    N4     O12       5.51305      .   S
    Zr6    O13       2.19700  1_565   S
    N4     O13       5.52561      .   S
    Zr6    O14       3.40361      .   S
    N5     O14       7.79141  1_554   S
    Zr6    O15       2.19713      .   S
    N1     O15       5.51233  1_455   S
    Zr6    O16       2.19575      .   S
    N1     O16       5.50644      .   S
    Zr17   O18       3.40327      .   S
    N0     O18       7.79040  1_556   S
    Zr17   O19       2.19424      .   S
    N2     O19       5.50378  1_655   S
    Zr17   O20       2.19865      .   S
    N2     O20       5.51499      .   S
    Zr17   O21       2.19887      .   S
    N3     O21       5.51684      .   S
    Zr17   O22       2.17957  1_545   S
    N3     O22       5.53809      .   S
    Zr17   O23       3.40341      .   S
    N0     O23       7.78977      .   S
    Zr17   O24       2.18936      .   S
    N2     O24       5.50651  1_655   S
    Zr17   O25       2.19708      .   S
    N2     O25       5.51512      .   S
    Zr17   O26       2.19663      .   S
    N3     O26       5.51850      .   S
    Zr17   O27       2.20517  1_545   S
    N3     O27       5.51611      .   S
