# CIF file generated by openbabel 2.4.90, see http://openbabel.sf.net
data_I
_chemical_name_common ''
_cell_length_a 18.538
_cell_length_b 16.297
_cell_length_c 16.338
_cell_angle_alpha 63.269
_cell_angle_beta 79.284
_cell_angle_gamma 100.929
_space_group_name_H-M_alt 'P 1'
_space_group_name_Hall 'P 1'
loop_
    _symmetry_equiv_pos_as_xyz
    x,y,z
loop_
    _atom_site_label
    _atom_site_type_symbol
    _atom_site_fract_x
    _atom_site_fract_y
    _atom_site_fract_z
    _atom_site_occupancy
    Zr0     Zr   0.25002   0.99999   0.49998   1.000
    Zr1     Zr   0.75001   0.99999   0.49997   1.000
    Zr2     Zr   0.00000   0.50001   0.49997   1.000
    Zr3     Zr   0.50001   0.50001   0.49997   1.000
    Zr4     Zr   0.25001   0.49998   0.99998   1.000
    Zr5     Zr   0.75002   0.49999   0.99998   1.000
    N6      N    0.54636   0.88246   0.54996   1.000
    O7      O    0.41837   0.72026   0.74617   1.000
    N8      N    0.60518   0.56757   0.88192   1.000
    O9      O    0.55825   0.53354   0.71992   1.000
    N10     N    0.45366   0.11751   0.44999   1.000
    O11     O    0.58166   0.27972   0.25377   1.000
    N12     N    0.04637   0.88247   0.54996   1.000
    O13     O    0.91838   0.72026   0.74618   1.000
    N14     N    0.67847   0.45076   0.43218   1.000
    O15     O    0.70853   0.25420   0.46629   1.000
    N16     N    0.10517   0.56756   0.88192   1.000
    O17     O    0.05824   0.53354   0.71992   1.000
    N18     N    0.82157   0.54925   0.56776   1.000
    O19     O    0.79150   0.74580   0.53365   1.000
    N20     N    0.89487   0.43243   0.11802   1.000
    O21     O    0.94178   0.46647   0.28000   1.000
    N22     N    0.32156   0.54925   0.56776   1.000
    O23     O    0.29150   0.74580   0.53365   1.000
    N24     N    0.95365   0.11751   0.44998   1.000
    O25     O    0.08165   0.27972   0.25377   1.000
    N26     N    0.39486   0.43244   0.11801   1.000
    O27     O    0.44178   0.46647   0.28001   1.000
    N28     N    0.17846   0.45076   0.43219   1.000
    O29     O    0.20853   0.25420   0.46630   1.000
    O30     O    0.11047   0.48239   0.45436   1.000
    O31     O    0.88955   0.51762   0.54559   1.000
    O32     O    0.86966   0.06357   0.48186   1.000
    O33     O    0.63035   0.93641   0.51808   1.000
    O34     O    0.13036   0.93641   0.51809   1.000
    O35     O    0.36967   0.06357   0.48187   1.000
    O36     O    0.33780   0.45443   0.06396   1.000
    O37     O    0.16222   0.54556   0.93598   1.000
    O38     O    0.38955   0.51762   0.54559   1.000
    O39     O    0.61048   0.48239   0.45435   1.000
    O40     O    0.66223   0.54556   0.93598   1.000
    O41     O    0.83781   0.45443   0.06396   1.000
loop_
    _geom_bond_atom_site_label_1
    _geom_bond_atom_site_label_2
    _geom_bond_distance
    _geom_bond_site_symmetry_2
    _ccdc_geom_bond_type
    N6     O7        3.17243      .   S
    Zr4    O7        4.16773      .   S
    N8     O9        3.17222      .   S
    Zr3    O9        4.16696      .   S
    N10    O11       3.17245      .   S
    Zr5    O11       4.16764  1_556   S
    N12    O13       3.17239  1_455   S
    Zr5    O13       4.16770      .   S
    N14    O15       3.17310      .   S
    Zr1    O15       4.16795  1_565   S
    N16    O17       3.17221      .   S
    Zr2    O17       4.16693      .   S
    N18    O19       3.17303      .   S
    Zr1    O19       4.16776      .   S
    N20    O21       3.17202      .   S
    Zr2    O21       4.16715  1_455   S
    N22    O23       3.17301      .   S
    Zr0    O23       4.16772      .   S
    N24    O25       3.17239  1_655   S
    Zr4    O25       4.16757  1_556   S
    N26    O27       3.17228      .   S
    Zr3    O27       4.16701      .   S
    N28    O29       3.17311      .   S
    Zr0    O29       4.16798  1_565   S
    Zr2    O30       2.16321      .   S
    N28    O30       1.49344      .   S
    Zr2    O31       2.16281  1_455   S
    N18    O31       1.49331      .   S
    Zr1    O32       2.16564  1_565   S
    N24    O32       1.49532      .   S
    Zr1    O33       2.16567      .   S
    N6     O33       1.49534      .   S
    Zr0    O34       2.16567      .   S
    N12    O34       1.49532      .   S
    Zr0    O35       2.16561  1_565   S
    N10    O35       1.49531      .   S
    Zr4    O36       2.16461  1_556   S
    N26    O36       1.49457      .   S
    Zr4    O37       2.16464      .   S
    N16    O37       1.49462      .   S
    Zr3    O38       2.16304      .   S
    N22    O38       1.49340      .   S
    Zr3    O39       2.16309      .   S
    N14    O39       1.49340      .   S
    Zr5    O40       2.16468      .   S
    N8     O40       1.49459      .   S
    Zr5    O41       2.16455  1_556   S
    N20    O41       1.49454      .   S
