# CIF file generated by openbabel 2.4.90, see http://openbabel.sf.net
data_I
_chemical_name_common ''
_cell_length_a 18.538
_cell_length_b 16.297
_cell_length_c 16.338
_cell_angle_alpha 63.269
_cell_angle_beta 79.284
_cell_angle_gamma 100.929
_space_group_name_H-M_alt 'P 1'
_space_group_name_Hall 'P 1'
loop_
    _symmetry_equiv_pos_as_xyz
    x,y,z
loop_
    _atom_site_label
    _atom_site_type_symbol
    _atom_site_fract_x
    _atom_site_fract_y
    _atom_site_fract_z
    _atom_site_occupancy
    Zr0     Zr   0.25002   0.99999   0.49998   1.000
    Zr1     Zr   0.75001   0.99999   0.49997   1.000
    Zr2     Zr   0.00000   0.50001   0.49997   1.000
    Zr3     Zr   0.50001   0.50001   0.49997   1.000
    Zr4     Zr   0.25001   0.49998   0.99998   1.000
    Zr5     Zr   0.75002   0.49999   0.99998   1.000
    N6      N    0.54636   0.88246   0.54996   1.000
    O7      O    0.63975   0.95011   0.49570   1.000
    O8      O    0.62095   0.92271   0.54046   1.000
    O9      O    0.41837   0.72026   0.74617   1.000
    N10     N    0.60518   0.56757   0.88192   1.000
    O11     O    0.66485   0.55434   0.94955   1.000
    O12     O    0.55825   0.53354   0.71992   1.000
    O13     O    0.65961   0.53679   0.92241   1.000
    N14     N    0.45366   0.11751   0.44999   1.000
    O15     O    0.58166   0.27972   0.25377   1.000
    O16     O    0.36027   0.04987   0.50425   1.000
    O17     O    0.37907   0.07728   0.45949   1.000
    N18     N    0.04637   0.88247   0.54996   1.000
    O19     O    0.12096   0.92271   0.54046   1.000
    O20     O    0.13976   0.95012   0.49571   1.000
    O21     O    0.91838   0.72026   0.74618   1.000
    N22     N    0.67847   0.45076   0.43218   1.000
    O23     O    0.61215   0.50481   0.44556   1.000
    O24     O    0.70853   0.25420   0.46629   1.000
    O25     O    0.60880   0.45997   0.46314   1.000
    N26     N    0.10517   0.56756   0.88192   1.000
    O27     O    0.16484   0.55433   0.94956   1.000
    O28     O    0.05824   0.53354   0.71992   1.000
    O29     O    0.15960   0.53679   0.92240   1.000
    N30     N    0.82157   0.54925   0.56776   1.000
    O31     O    0.89123   0.54004   0.53681   1.000
    O32     O    0.88788   0.49520   0.55437   1.000
    O33     O    0.79150   0.74580   0.53365   1.000
    N34     N    0.89487   0.43243   0.11802   1.000
    O35     O    0.84043   0.46320   0.07754   1.000
    O36     O    0.83519   0.44565   0.05039   1.000
    O37     O    0.94178   0.46647   0.28000   1.000
    N38     N    0.32156   0.54925   0.56776   1.000
    O39     O    0.29150   0.74580   0.53365   1.000
    O40     O    0.38788   0.49520   0.55438   1.000
    O41     O    0.39123   0.54004   0.53680   1.000
    N42     N    0.95365   0.11751   0.44998   1.000
    O43     O    0.86026   0.04987   0.50424   1.000
    O44     O    0.08165   0.27972   0.25377   1.000
    O45     O    0.87906   0.07727   0.45948   1.000
    N46     N    0.39486   0.43244   0.11801   1.000
    O47     O    0.33518   0.44565   0.05038   1.000
    O48     O    0.44178   0.46647   0.28001   1.000
    O49     O    0.34042   0.46320   0.07754   1.000
    N50     N    0.17846   0.45076   0.43219   1.000
    O51     O    0.10879   0.45997   0.46314   1.000
    O52     O    0.11215   0.50481   0.44557   1.000
    O53     O    0.20853   0.25420   0.46630   1.000
loop_
    _geom_bond_atom_site_label_1
    _geom_bond_atom_site_label_2
    _geom_bond_distance
    _geom_bond_site_symmetry_2
    _ccdc_geom_bond_type
    N6     O7        1.68075      .   S
    Zr1    O7        2.07782      .   S
    N6     O8        1.36057      .   S
    Zr1    O8        2.29497      .   S
    N6     O9        3.17243      .   S
    Zr4    O9        4.16773      .   S
    N10    O11       1.67994      .   S
    Zr5    O11       2.07685      .   S
    N10    O12       3.17222      .   S
    Zr3    O12       4.16696      .   S
    N10    O13       1.35984      .   S
    Zr5    O13       2.29393      .   S
    N14    O15       3.17245      .   S
    Zr5    O15       4.16764  1_556   S
    N14    O16       1.68073      .   S
    Zr0    O16       2.07775  1_565   S
    N14    O17       1.36053      .   S
    Zr0    O17       2.29492  1_565   S
    N18    O19       1.36056      .   S
    Zr0    O19       2.29497      .   S
    N18    O20       1.68073      .   S
    Zr0    O20       2.07782      .   S
    N18    O21       3.17239  1_455   S
    Zr5    O21       4.16770      .   S
    N22    O23       1.67901      .   S
    Zr3    O23       2.07513      .   S
    N22    O24       3.17310      .   S
    Zr1    O24       4.16795  1_565   S
    N22    O25       1.35840      .   S
    Zr3    O25       2.29250      .   S
    N26    O27       1.68003      .   S
    Zr4    O27       2.07679      .   S
    N26    O28       3.17221      .   S
    Zr2    O28       4.16693      .   S
    N26    O29       1.35984      .   S
    Zr4    O29       2.29392      .   S
    N30    O31       1.35830      .   S
    Zr2    O31       2.29223  1_455   S
    N30    O32       1.67893      .   S
    Zr2    O32       2.07485  1_455   S
    N30    O33       3.17303      .   S
    Zr1    O33       4.16776      .   S
    N34    O35       1.35977      .   S
    Zr5    O35       2.29383  1_556   S
    N34    O36       1.67994      .   S
    Zr5    O36       2.07672  1_556   S
    N34    O37       3.17202      .   S
    Zr2    O37       4.16715  1_455   S
    N38    O39       3.17301      .   S
    Zr0    O39       4.16772      .   S
    N38    O40       1.67899      .   S
    Zr3    O40       2.07510      .   S
    N38    O41       1.35842      .   S
    Zr3    O41       2.29244      .   S
    N42    O43       1.68073      .   S
    Zr1    O43       2.07779  1_565   S
    N42    O44       3.17239  1_655   S
    Zr4    O44       4.16757  1_556   S
    N42    O45       1.36054      .   S
    Zr1    O45       2.29494  1_565   S
    N46    O47       1.67997      .   S
    Zr4    O47       2.07677  1_556   S
    N46    O48       3.17228      .   S
    Zr3    O48       4.16701      .   S
    N46    O49       1.35980      .   S
    Zr4    O49       2.29388  1_556   S
    N50    O51       1.35845      .   S
    Zr2    O51       2.29262      .   S
    N50    O52       1.67905      .   S
    Zr2    O52       2.07526      .   S
    N50    O53       3.17311      .   S
    Zr0    O53       4.16798  1_565   S
