# CIF file generated by openbabel 2.4.90, see http://openbabel.sf.net
data_I
_chemical_name_common ''
_cell_length_a 19.145
_cell_length_b 19.199
_cell_length_c 17.42
_cell_angle_alpha 95.567
_cell_angle_beta 105.607
_cell_angle_gamma 90.234
_space_group_name_H-M_alt 'P 1'
_space_group_name_Hall 'P 1'
loop_
    _symmetry_equiv_pos_as_xyz
    x,y,z
loop_
    _atom_site_label
    _atom_site_type_symbol
    _atom_site_fract_x
    _atom_site_fract_y
    _atom_site_fract_z
    _atom_site_occupancy
    N0      N    0.29760   0.75276   0.17878   1.000
    N1      N    0.28677   0.99978   0.17605   1.000
    N2      N    0.07714   0.68866   0.25274   1.000
    N3      N    0.57927   0.18980   0.25531   1.000
    N4      N    0.58051   0.69053   0.25548   1.000
    N5      N    0.36103   0.37187   0.99987   1.000
    N6      N    0.35826   0.87308   0.00098   1.000
    N7      N    0.42116   0.81370   0.74332   1.000
    N8      N    0.92220   0.31390   0.74168   1.000
    N9      N    0.92378   0.81288   0.74324   1.000
    N10     N    0.04800   0.94373   0.25698   1.000
    N11     N    0.54922   0.44162   0.25627   1.000
    N12     N    0.54948   0.94276   0.25761   1.000
    N13     N    0.04615   0.44328   0.25738   1.000
    N14     N    0.79987   0.24737   0.17221   1.000
    N15     N    0.28796   0.49874   0.17411   1.000
    N16     N    0.07716   0.18960   0.25548   1.000
    N17     N    0.30077   0.24868   0.17447   1.000
    N18     N    0.75201   0.00020   0.49892   1.000
    N19     N    0.75075   0.50011   0.49708   1.000
    N20     N    0.20397   0.24976   0.81909   1.000
    N21     N    0.49956   0.75117   0.49863   1.000
    N22     N    0.99906   0.25037   0.49836   1.000
    N23     N    0.00076   0.75136   0.49802   1.000
    N24     N    0.24857   0.50025   0.49706   1.000
    N25     N    0.21120   0.50281   0.82188   1.000
    N26     N    0.42166   0.31419   0.74186   1.000
    N27     N    0.20611   0.99949   0.81947   1.000
    N28     N    0.95214   0.55957   0.73797   1.000
    N29     N    0.44948   0.56061   0.74014   1.000
    N30     N    0.45175   0.06108   0.74085   1.000
    N31     N    0.95218   0.06092   0.74121   1.000
    N32     N    0.80119   0.74770   0.17237   1.000
    N33     N    0.70442   0.24824   0.81718   1.000
    N34     N    0.70336   0.74742   0.81605   1.000
    N35     N    0.20396   0.74953   0.81915   1.000
    N36     N    0.70519   0.49794   0.81598   1.000
    N37     N    0.70625   0.99728   0.81703   1.000
    N38     N    0.85893   0.37118   0.99754   1.000
    N39     N    0.85897   0.87042   0.99779   1.000
    N40     N    0.49994   0.25115   0.49866   1.000
    N41     N    0.24960   0.00194   0.50012   1.000
    N42     N    0.78617   0.49762   0.17163   1.000
    N43     N    0.78682   0.99782   0.17305   1.000
    N44     N    0.14092   0.12193   0.99999   1.000
    N45     N    0.64098   0.62062   0.99726   1.000
    N46     N    0.14076   0.63102   0.99645   1.000
    N47     N    0.64099   0.11958   0.99757   1.000
    Zr48    Zr   0.30442   0.36686   0.82733   1.000
    O49     O    0.34257   0.35234   0.79769   1.000
    O50     O    0.27481   0.41202   0.82297   1.000
    O51     O    0.32732   0.36635   0.88350   1.000
    O52     O    0.26923   0.32839   0.82169   1.000
    Zr53    Zr   0.19472   0.13591   0.16982   1.000
    O54     O    0.17196   0.13108   0.11427   1.000
    O55     O    0.15671   0.15104   0.19975   1.000
    O56     O    0.23164   0.17291   0.17419   1.000
    O57     O    0.22400   0.09068   0.17464   1.000
    Zr58    Zr   0.39041   0.38559   0.16958   1.000
    O59     O    0.36331   0.34008   0.17389   1.000
    O60     O    0.35602   0.42273   0.17394   1.000
    O61     O    0.38602   0.38090   0.11404   1.000
    O62     O    0.44284   0.40149   0.19983   1.000
    Zr63    Zr   0.68603   0.02586   0.34200   1.000
    O64     O    0.64083   0.99654   0.31614   1.000
    O65     O    0.65308   0.07873   0.31627   1.000
    O66     O    0.71916   0.01698   0.28977   1.000
    Zr67    Zr   0.18396   0.02732   0.34314   1.000
    O68     O    0.13892   0.99784   0.31668   1.000
    O69     O    0.15114   0.07975   0.31721   1.000
    O70     O    0.21777   0.01863   0.29154   1.000
    Zr71    Zr   0.69532   0.63452   0.16679   1.000
    O72     O    0.65818   0.65039   0.19767   1.000
    O73     O    0.67239   0.62976   0.11137   1.000
    O74     O    0.72424   0.58906   0.17118   1.000
    O75     O    0.73221   0.67164   0.17147   1.000
    Zr76    Zr   0.01276   0.22722   0.65672   1.000
    O77     O    0.07329   0.23490   0.70774   1.000
    O78     O    0.99355   0.17382   0.68186   1.000
    O79     O    0.98162   0.25757   0.68260   1.000
    Zr80    Zr   0.51233   0.22758   0.65670   1.000
    O81     O    0.49312   0.17414   0.68175   1.000
    O82     O    0.48114   0.25791   0.68265   1.000
    O83     O    0.57312   0.23462   0.70713   1.000
    Zr84    Zr   0.19609   0.63577   0.16947   1.000
    O85     O    0.22521   0.59023   0.17353   1.000
    O86     O    0.15734   0.65039   0.19835   1.000
    O87     O    0.17367   0.63638   0.11311   1.000
    O88     O    0.23163   0.67413   0.17540   1.000
    Zr89    Zr   0.98651   0.77549   0.33970   1.000
    O90     O    0.92722   0.76670   0.28800   1.000
    O91     O    0.00609   0.82945   0.31502   1.000
    O92     O    0.01760   0.74505   0.31305   1.000
    Zr93    Zr   0.01432   0.72723   0.65640   1.000
    O94     O    0.98325   0.75726   0.68300   1.000
    O95     O    0.99455   0.67341   0.68059   1.000
    O96     O    0.07452   0.73469   0.70714   1.000
    Zr97    Zr   0.31440   0.47568   0.65410   1.000
    O98     O    0.34739   0.42356   0.68011   1.000
    O99     O    0.35915   0.50556   0.68047   1.000
    O100    O    0.28078   0.48430   0.70620   1.000
    Zr101   Zr   0.51093   0.72736   0.65656   1.000
    O102    O    0.49138   0.67383   0.68140   1.000
    O103    O    0.48005   0.75760   0.68308   1.000
    O104    O    0.57186   0.73422   0.70660   1.000
    Zr105   Zr   0.61096   0.11428   0.82570   1.000
    O106    O    0.55826   0.09963   0.79631   1.000
    O107    O    0.63911   0.15901   0.82064   1.000
    O108    O    0.61641   0.11350   0.88172   1.000
    O109    O    0.64299   0.07583   0.81988   1.000
    Zr110   Zr   0.11019   0.11616   0.82725   1.000
    O111    O    0.11585   0.11568   0.88358   1.000
    O112    O    0.14241   0.07781   0.82175   1.000
    O113    O    0.05784   0.10085   0.79748   1.000
    O114    O    0.13846   0.16076   0.82230   1.000
    Zr115   Zr   0.89008   0.88543   0.16788   1.000
    O116    O    0.94222   0.90210   0.19890   1.000
    O117    O    0.86322   0.83967   0.17210   1.000
    O118    O    0.85546   0.92229   0.17240   1.000
    O119    O    0.88502   0.88027   0.11222   1.000
    Zr120   Zr   0.81842   0.97539   0.65637   1.000
    O121    O    0.86277   0.00541   0.68224   1.000
    O122    O    0.85078   0.92296   0.68208   1.000
    O123    O    0.78269   0.98282   0.70676   1.000
    Zr124   Zr   0.48815   0.77513   0.34060   1.000
    O125    O    0.50765   0.82898   0.31598   1.000
    O126    O    0.51987   0.74542   0.31462   1.000
    O127    O    0.42767   0.76760   0.29013   1.000
    Zr128   Zr   0.18279   0.52539   0.34000   1.000
    O129    O    0.13755   0.49638   0.31477   1.000
    O130    O    0.21705   0.51689   0.28853   1.000
    O131    O    0.15027   0.57808   0.31416   1.000
    Zr132   Zr   0.31666   0.97741   0.65707   1.000
    O133    O    0.28144   0.98488   0.70802   1.000
    O134    O    0.34879   0.92464   0.68267   1.000
    O135    O    0.36142   0.00684   0.68262   1.000
    Zr136   Zr   0.48688   0.27519   0.34049   1.000
    O137    O    0.42737   0.26678   0.28918   1.000
    O138    O    0.50670   0.32869   0.31549   1.000
    O139    O    0.51859   0.24520   0.31447   1.000
    Zr140   Zr   0.88878   0.38451   0.16725   1.000
    O141    O    0.86192   0.33894   0.17163   1.000
    O142    O    0.85435   0.42161   0.17147   1.000
    O143    O    0.94070   0.40134   0.19867   1.000
    O144    O    0.88415   0.37990   0.11176   1.000
    Zr145   Zr   0.10978   0.61636   0.82688   1.000
    O146    O    0.05771   0.60031   0.79599   1.000
    O147    O    0.14374   0.57903   0.82233   1.000
    O148    O    0.11472   0.62120   0.88241   1.000
    O149    O    0.13821   0.66078   0.82182   1.000
    Zr150   Zr   0.39030   0.88745   0.17220   1.000
    O151    O    0.44286   0.90308   0.20197   1.000
    O152    O    0.38488   0.88265   0.11617   1.000
    O153    O    0.35563   0.92433   0.17631   1.000
    O154    O    0.36238   0.84251   0.17687   1.000
    Zr155   Zr   0.98454   0.27507   0.34013   1.000
    O156    O    0.00424   0.32894   0.31539   1.000
    O157    O    0.92547   0.26631   0.28823   1.000
    O158    O    0.01628   0.24505   0.31426   1.000
    Zr159   Zr   0.69446   0.13370   0.16716   1.000
    O160    O    0.65722   0.14963   0.19790   1.000
    O161    O    0.73115   0.17102   0.17165   1.000
    O162    O    0.72390   0.08859   0.17192   1.000
    O163    O    0.67183   0.12877   0.11170   1.000
    Zr164   Zr   0.80428   0.86414   0.82614   1.000
    O165    O    0.82643   0.86365   0.88209   1.000
    O166    O    0.77345   0.90856   0.82084   1.000
    O167    O    0.84325   0.85013   0.79743   1.000
    O168    O    0.76893   0.82579   0.81981   1.000
    Zr169   Zr   0.80421   0.36601   0.82616   1.000
    O170    O    0.76925   0.32730   0.82024   1.000
    O171    O    0.82644   0.36530   0.88200   1.000
    O172    O    0.77305   0.41004   0.82048   1.000
    O173    O    0.84267   0.35175   0.79690   1.000
    Zr174   Zr   0.81690   0.47621   0.65403   1.000
    O175    O    0.78133   0.48360   0.70488   1.000
    O176    O    0.86173   0.50556   0.67963   1.000
    O177    O    0.84920   0.42382   0.68001   1.000
    Zr178   Zr   0.30458   0.86697   0.82938   1.000
    O179    O    0.32648   0.86671   0.88535   1.000
    O180    O    0.34259   0.85233   0.79960   1.000
    O181    O    0.27358   0.91118   0.82375   1.000
    O182    O    0.26941   0.82838   0.82306   1.000
    Zr183   Zr   0.60877   0.61406   0.82390   1.000
    O184    O    0.64114   0.57588   0.81831   1.000
    O185    O    0.63730   0.65860   0.81908   1.000
    O186    O    0.61497   0.61383   0.88048   1.000
    O187    O    0.55601   0.59933   0.79492   1.000
    Zr188   Zr   0.68497   0.52544   0.34004   1.000
    O189    O    0.65278   0.57864   0.31499   1.000
    O190    O    0.64001   0.49593   0.31445   1.000
    O191    O    0.71821   0.51664   0.28798   1.000
    O192    O    0.29489   0.98555   0.60625   1.000
    O193    O    0.98924   0.26688   0.39139   1.000
    O194    O    0.00837   0.23484   0.60542   1.000
    O195    O    0.00993   0.73526   0.60509   1.000
    O196    O    0.49187   0.76715   0.39180   1.000
    O197    O    0.50723   0.73528   0.60540   1.000
    O198    O    0.79687   0.98363   0.60537   1.000
    O199    O    0.20519   0.01886   0.39397   1.000
    O200    O    0.70628   0.51701   0.39089   1.000
    O201    O    0.50832   0.23539   0.60551   1.000
    O202    O    0.99116   0.76746   0.39099   1.000
    O203    O    0.49114   0.26720   0.39173   1.000
    O204    O    0.79546   0.48411   0.60322   1.000
    O205    O    0.29306   0.48382   0.60325   1.000
    O206    O    0.20412   0.51704   0.39085   1.000
    O207    O    0.70742   0.01731   0.39280   1.000
loop_
    _geom_bond_atom_site_label_1
    _geom_bond_atom_site_label_2
    _geom_bond_distance
    _geom_bond_site_symmetry_2
    _ccdc_geom_bond_type
    Zr48   O49       1.02682      .   S
    N26    O49       2.10687      .   S
    Zr48   O50       1.03551      .   S
    N25    O50       2.12913      .   S
    Zr48   O51       0.95958      .   S
    N5     O51       1.94713      .   S
    Zr48   O52       0.97728      .   S
    N20    O52       1.94510      .   S
    Zr53   O54       0.94346      .   S
    N44    O54       1.90840  1_556   S
    Zr53   O55       1.03058      .   S
    N16    O55       2.11557      .   S
    Zr53   O56       0.98318      .   S
    N17    O56       1.96137      .   S
    Zr53   O57       1.03343      .   S
    N1     O57       2.12131  1_565   S
    Zr58   O59       1.03370      .   S
    N17    O59       2.12268      .   S
    Zr58   O60       0.98381      .   S
    N15    O60       1.96070      .   S
    Zr58   O61       0.94358      .   S
    N5     O61       1.90653  1_556   S
    Zr58   O62       1.02950      .   S
    N11    O62       2.11451      .   S
    Zr63   O64       1.00286  1_545   S
    N12    O64       1.99652      .   S
    Zr63   O65       1.25319      .   S
    N3     O65       2.70708      .   S
    Zr63   O66       1.24110      .   S
    N43    O66       2.68764  1_565   S
    Zr67   O68       1.00396  1_545   S
    N10    O68       1.99801      .   S
    Zr67   O69       1.24619      .   S
    N16    O69       2.69352      .   S
    Zr67   O70       1.24075      .   S
    N1     O70       2.68620  1_565   S
    Zr71   O72       1.03141      .   S
    N4     O72       2.11745      .   S
    Zr71   O73       0.94215      .   S
    N45    O73       1.90583  1_556   S
    Zr71   O74       1.03342      .   S
    N42    O74       2.12192      .   S
    Zr71   O75       0.98337      .   S
    N32    O75       1.96101      .   S
    Zr76   O77       1.25438      .   S
    N20    O77       2.71647      .   S
    Zr76   O78       1.24452  1_455   S
    N31    O78       2.69378      .   S
    Zr76   O79       0.99737  1_455   S
    N8     O79       1.98655      .   S
    Zr80   O81       1.24451      .   S
    N30    O81       2.69375      .   S
    Zr80   O82       0.99849      .   S
    N26    O82       1.98840      .   S
    Zr80   O83       1.25298      .   S
    N33    O83       2.71425      .   S
    Zr84   O85       1.03679      .   S
    N15    O85       2.13136      .   S
    Zr84   O86       1.02842      .   S
    N2     O86       2.10992      .   S
    Zr84   O87       0.96109      .   S
    N46    O87       1.95130  1_556   S
    Zr84   O88       0.97947      .   S
    N0     O88       1.95052      .   S
    Zr89   O90       1.24376      .   S
    N32    O90       2.69213      .   S
    Zr89   O91       1.25235  1_655   S
    N10    O91       2.70793      .   S
    Zr89   O92       1.00505  1_655   S
    N2     O92       2.00225      .   S
    Zr93   O94       1.00006  1_455   S
    N9     O94       1.99331      .   S
    Zr93   O95       1.24735  1_455   S
    N28    O95       2.69837      .   S
    Zr93   O96       1.24747      .   S
    N35    O96       2.70453      .   S
    Zr97   O98       1.24284      .   S
    N26    O98       2.68852      .   S
    Zr97   O99       1.00350      .   S
    N29    O99       1.99819      .   S
    Zr97   O100      1.24570      .   S
    N25    O100      2.69648      .   S
    Zr101  O102      1.24656      .   S
    N29    O102      2.69706      .   S
    Zr101  O103      0.99891      .   S
    N7     O103      1.98995      .   S
    Zr101  O104      1.25181      .   S
    N34    O104      2.71226      .   S
    Zr105  O106      1.02527      .   S
    N30    O106      2.10423      .   S
    Zr105  O107      1.03547      .   S
    N33    O107      2.13192      .   S
    Zr105  O108      0.95477      .   S
    N47    O108      1.93662      .   S
    Zr105  O109      0.97657      .   S
    N37    O109      1.94327  1_565   S
    Zr110  O111      0.95878      .   S
    N44    O111      1.94572      .   S
    Zr110  O112      0.97661      .   S
    N27    O112      1.94408  1_565   S
    Zr110  O113      1.02369      .   S
    N31    O113      2.10133  1_655   S
    Zr110  O114      1.03409      .   S
    N20    O114      2.12934      .   S
    Zr115  O116      1.03169      .   S
    N10    O116      2.11929  1_455   S
    Zr115  O117      1.03485      .   S
    N32    O117      2.12487      .   S
    Zr115  O118      0.98359      .   S
    N43    O118      1.96216      .   S
    Zr115  O119      0.94348      .   S
    N39    O119      1.91025  1_556   S
    Zr120  O121      0.99788  1_565   S
    N31    O121      1.98690      .   S
    Zr120  O122      1.24129      .   S
    N9     O122      2.68603      .   S
    Zr120  O123      1.24832      .   S
    N37    O123      2.70580      .   S
    Zr124  O125      1.24964      .   S
    N12    O125      2.70208      .   S
    Zr124  O126      0.99982      .   S
    N4     O126      1.99061      .   S
    Zr124  O127      1.24941      .   S
    N0     O127      2.70783      .   S
    Zr128  O129      0.99870      .   S
    N13    O129      1.98673      .   S
    Zr128  O130      1.24483      .   S
    N15    O130      2.69489      .   S
    Zr128  O131      1.24749      .   S
    N2     O131      2.69665      .   S
    Zr132  O133      1.24932      .   S
    N27    O133      2.70784      .   S
    Zr132  O134      1.24442      .   S
    N7     O134      2.69178      .   S
    Zr132  O135      0.99685  1_565   S
    N30    O135      1.98519      .   S
    Zr136  O137      1.24313      .   S
    N17    O137      2.69091      .   S
    Zr136  O138      1.24957      .   S
    N11    O138      2.70172      .   S
    Zr136  O139      1.00289      .   S
    N3     O139      1.99618      .   S
    Zr140  O141      1.03256      .   S
    N14    O141      2.12020      .   S
    Zr140  O142      0.98324      .   S
    N42    O142      1.96221      .   S
    Zr140  O143      1.03080      .   S
    N13    O143      2.11788  1_455   S
    Zr140  O144      0.94203      .   S
    N38    O144      1.90723  1_556   S
    Zr145  O146      1.02723      .   S
    N28    O146      2.11008  1_655   S
    Zr145  O147      0.98142      .   S
    N25    O147      1.95650      .   S
    Zr145  O148      0.94154      .   S
    N46    O148      1.90384      .   S
    Zr145  O149      1.03341      .   S
    N35    O149      2.12595      .   S
    Zr150  O151      1.02872      .   S
    N12    O151      2.11322      .   S
    Zr150  O152      0.94862      .   S
    N6     O152      1.92287      .   S
    Zr150  O153      0.98312      .   S
    N1     O153      1.96217      .   S
    Zr150  O154      1.03436      .   S
    N0     O154      2.12711      .   S
    Zr155  O156      1.25233  1_655   S
    N13    O156      2.70865      .   S
    Zr155  O157      1.24234      .   S
    N14    O157      2.68968      .   S
    Zr155  O158      1.00202  1_655   S
    N16    O158      1.99539      .   S
    Zr159  O160      1.03151      .   S
    N3     O160      2.11772      .   S
    Zr159  O161      0.98402      .   S
    N14    O161      1.96311      .   S
    Zr159  O162      1.03315      .   S
    N43    O162      2.12137  1_565   S
    Zr159  O163      0.94162      .   S
    N47    O163      1.90582  1_556   S
    Zr164  O165      0.95357      .   S
    N39    O165      1.93389      .   S
    Zr164  O166      1.03649      .   S
    N37    O166      2.13411      .   S
    Zr164  O167      1.02735      .   S
    N9     O167      2.10731      .   S
    Zr164  O168      0.97571      .   S
    N34    O168      1.94057      .   S
    Zr169  O170      0.97719      .   S
    N33    O170      1.94434      .   S
    Zr169  O171      0.95254      .   S
    N38    O171      1.93202      .   S
    Zr169  O172      1.03375      .   S
    N36    O172      2.12862      .   S
    Zr169  O173      1.02650      .   S
    N8     O173      2.10553      .   S
    Zr174  O175      1.25283      .   S
    N36    O175      2.71379      .   S
    Zr174  O176      0.99715      .   S
    N28    O176      1.98452      .   S
    Zr174  O177      1.24168      .   S
    N8     O177      2.68635      .   S
    Zr178  O179      0.95263      .   S
    N6     O179      1.93249  1_554   S
    Zr178  O180      1.02684      .   S
    N7     O180      2.10596      .   S
    Zr178  O181      1.03490      .   S
    N27    O181      2.13057      .   S
    Zr178  O182      0.97694      .   S
    N35    O182      1.94555      .   S
    Zr183  O184      0.97623      .   S
    N36    O184      1.94279      .   S
    Zr183  O185      1.03520      .   S
    N34    O185      2.13206      .   S
    Zr183  O186      0.96098      .   S
    N45    O186      1.95090      .   S
    Zr183  O187      1.02496      .   S
    N29    O187      2.10377      .   S
    Zr188  O189      1.24905      .   S
    N4     O189      2.69974      .   S
    Zr188  O190      1.00062      .   S
    N11    O190      1.99194      .   S
    Zr188  O191      1.23995      .   S
    N42    O191      2.68585      .   S
    Zr132  O192      0.90031      .   S
    N41    O192      1.87659  1_545   S
    N22    O193      1.88012      .   S
    Zr155  O193      0.90236      .   S
    N22    O194      1.87834  1_655   S
    Zr76   O194      0.90117      .   S
    Zr93   O195      0.90340      .   S
    N23    O195      1.88185      .   S
    N21    O196      1.88225      .   S
    Zr124  O196      0.90364      .   S
    N21    O197      1.88072      .   S
    Zr101  O197      0.90265      .   S
    Zr120  O198      0.90280      .   S
    N18    O198      1.88077  1_545   S
    Zr67   O199      0.90022      .   S
    N41    O199      1.87633      .   S
    Zr188  O200      0.90070      .   S
    N19    O200      1.87708      .   S
    Zr80   O201      0.90162      .   S
    N40    O201      1.87899      .   S
    Zr89   O202      0.90217      .   S
    N23    O202      1.87982  1_455   S
    N40    O203      1.88033      .   S
    Zr136  O203      0.90249      .   S
    Zr174  O204      0.89781      .   S
    N19    O204      1.87246      .   S
    N24    O205      1.87474      .   S
    Zr97   O205      0.89920      .   S
    N24    O206      1.87662      .   S
    Zr128  O206      0.90038      .   S
    Zr63   O207      0.90088      .   S
    N18    O207      1.87744      .   S
