# CIF file generated by openbabel 2.4.90, see http://openbabel.sf.net
data_I
_chemical_name_common ''
_cell_length_a 19.145
_cell_length_b 19.199
_cell_length_c 17.42
_cell_angle_alpha 95.567
_cell_angle_beta 105.607
_cell_angle_gamma 90.234
_space_group_name_H-M_alt 'P 1'
_space_group_name_Hall 'P 1'
loop_
    _symmetry_equiv_pos_as_xyz
    x,y,z
loop_
    _atom_site_label
    _atom_site_type_symbol
    _atom_site_fract_x
    _atom_site_fract_y
    _atom_site_fract_z
    _atom_site_occupancy
    Zr0     Zr   0.39041   0.38559   0.16958   1.000
    Zr1     Zr   0.39030   0.88745   0.17220   1.000
    Zr2     Zr   0.88878   0.38451   0.16725   1.000
    Zr3     Zr   0.89008   0.88543   0.16788   1.000
    Zr4     Zr   0.48688   0.27519   0.34049   1.000
    Zr5     Zr   0.48815   0.77513   0.34060   1.000
    Zr6     Zr   0.98454   0.27507   0.34013   1.000
    Zr7     Zr   0.98651   0.77549   0.33970   1.000
    Zr8     Zr   0.30442   0.36686   0.82733   1.000
    Zr9     Zr   0.30458   0.86697   0.82938   1.000
    Zr10    Zr   0.80421   0.36601   0.82616   1.000
    Zr11    Zr   0.80428   0.86414   0.82614   1.000
    Zr12    Zr   0.31440   0.47568   0.65410   1.000
    Zr13    Zr   0.31666   0.97741   0.65707   1.000
    Zr14    Zr   0.81690   0.47621   0.65403   1.000
    Zr15    Zr   0.81842   0.97539   0.65637   1.000
    Zr16    Zr   0.11019   0.11616   0.82725   1.000
    Zr17    Zr   0.10978   0.61636   0.82688   1.000
    Zr18    Zr   0.61096   0.11428   0.82570   1.000
    Zr19    Zr   0.60877   0.61406   0.82390   1.000
    Zr20    Zr   0.01276   0.22722   0.65672   1.000
    Zr21    Zr   0.01432   0.72723   0.65640   1.000
    Zr22    Zr   0.51233   0.22758   0.65670   1.000
    Zr23    Zr   0.51093   0.72736   0.65656   1.000
    Zr24    Zr   0.19472   0.13591   0.16982   1.000
    Zr25    Zr   0.19609   0.63577   0.16947   1.000
    Zr26    Zr   0.69446   0.13370   0.16716   1.000
    Zr27    Zr   0.69533   0.63452   0.16679   1.000
    Zr28    Zr   0.18396   0.02732   0.34314   1.000
    Zr29    Zr   0.18279   0.52539   0.34000   1.000
    Zr30    Zr   0.68603   0.02586   0.34200   1.000
    Zr31    Zr   0.68497   0.52544   0.34004   1.000
    N32     N    0.29760   0.75276   0.17878   1.000
    O33     O    0.36718   0.76006   0.23965   1.000
    O34     O    0.33446   0.79757   0.18153   1.000
    O35     O    0.26717   0.71249   0.18133   1.000
    N36     N    0.28677   0.99978   0.17605   1.000
    O37     O    0.25329   0.04546   0.17945   1.000
    O38     O    0.32096   0.96121   0.18041   1.000
    O39     O    0.25157   0.00995   0.23994   1.000
    N40     N    0.07714   0.68866   0.25274   1.000
    O41     O    0.11775   0.63076   0.28831   1.000
    O42     O    0.04869   0.71462   0.28640   1.000
    O43     O    0.11858   0.66501   0.22723   1.000
    N44     N    0.57927   0.18980   0.25531   1.000
    O45     O    0.62013   0.13159   0.29053   1.000
    O46     O    0.55029   0.21520   0.28845   1.000
    O47     O    0.61998   0.16555   0.22864   1.000
    N48     N    0.58051   0.69053   0.25548   1.000
    O49     O    0.62060   0.63183   0.28994   1.000
    O50     O    0.55159   0.71571   0.28864   1.000
    O51     O    0.62104   0.66626   0.22856   1.000
    N52     N    0.36103   0.37187   0.99987   1.000
    O53     O    0.38163   0.37621   0.05851   1.000
    O54     O    0.35023   0.36584   0.93967   1.000
    N55     N    0.35826   0.87308   0.00098   1.000
    O56     O    0.37945   0.87785   0.06014   1.000
    O57     O    0.34839   0.86645   0.94132   1.000
    N58     N    0.42116   0.81370   0.74332   1.000
    O59     O    0.38061   0.83768   0.76983   1.000
    O60     O    0.38092   0.87188   0.70827   1.000
    O61     O    0.44917   0.78784   0.70960   1.000
    N62     N    0.92220   0.31390   0.74168   1.000
    O63     O    0.88113   0.33748   0.76763   1.000
    O64     O    0.88150   0.37142   0.70598   1.000
    O65     O    0.95048   0.28792   0.70848   1.000
    N66     N    0.92378   0.81288   0.74324   1.000
    O67     O    0.88222   0.83612   0.76872   1.000
    O68     O    0.95218   0.78729   0.70959   1.000
    O69     O    0.88314   0.87054   0.70779   1.000
    N70     N    0.04800   0.94373   0.25698   1.000
    O71     O    0.09388   0.96836   0.29022   1.000
    O72     O    0.02567   0.88340   0.29034   1.000
    O73     O    0.99436   0.91877   0.22992   1.000
    N74     N    0.54922   0.44162   0.25627   1.000
    O75     O    0.59505   0.46641   0.28885   1.000
    O76     O    0.52651   0.38220   0.29048   1.000
    O77     O    0.49526   0.41739   0.23007   1.000
    N78     N    0.54948   0.94276   0.25761   1.000
    O79     O    0.59563   0.96723   0.29028   1.000
    O80     O    0.52715   0.88284   0.29135   1.000
    O81     O    0.49543   0.91871   0.23174   1.000
    N82     N    0.04615   0.44328   0.25738   1.000
    O83     O    0.09230   0.46737   0.28955   1.000
    O84     O    0.99263   0.41817   0.23009   1.000
    O85     O    0.02393   0.38281   0.29065   1.000
    N86     N    0.79987   0.24737   0.17221   1.000
    O87     O    0.86640   0.25755   0.23633   1.000
    O88     O    0.83506   0.29337   0.17602   1.000
    O89     O    0.76784   0.20834   0.17613   1.000
    N90     N    0.28796   0.49874   0.17411   1.000
    O91     O    0.25432   0.54468   0.17760   1.000
    O92     O    0.25131   0.50839   0.23706   1.000
    O93     O    0.32164   0.45987   0.17830   1.000
    N94     N    0.07716   0.18960   0.25548   1.000
    O95     O    0.11871   0.16618   0.22967   1.000
    O96     O    0.04801   0.21503   0.28840   1.000
    O97     O    0.11832   0.13219   0.29128   1.000
    N98     N    0.30077   0.24868   0.17447   1.000
    O99     O    0.36787   0.25838   0.23788   1.000
    O100    O    0.26856   0.20992   0.17857   1.000
    O101    O    0.33620   0.29456   0.17819   1.000
    N102    N    0.75201   0.00020   0.49892   1.000
    O103    O    0.72127   0.02338   0.44975   1.000
    O104    O    0.78294   0.97732   0.54824   1.000
    O105    O    0.76770   0.00643   0.56051   1.000
    O106    O    0.73635   0.99412   0.43746   1.000
    N107    N    0.75075   0.50011   0.49708   1.000
    O108    O    0.71996   0.52314   0.44793   1.000
    O109    O    0.78167   0.47747   0.54622   1.000
    O110    O    0.76636   0.50654   0.55858   1.000
    O111    O    0.73520   0.49403   0.43556   1.000
    N112    N    0.20397   0.24976   0.81909   1.000
    O113    O    0.13381   0.24257   0.75876   1.000
    O114    O    0.23405   0.28992   0.81605   1.000
    O115    O    0.16673   0.20536   0.81734   1.000
    N116    N    0.49956   0.75117   0.49863   1.000
    O117    O    0.48443   0.74490   0.43694   1.000
    O118    O    0.51472   0.75744   0.56031   1.000
    O119    O    0.49232   0.72896   0.54817   1.000
    O120    O    0.50673   0.77346   0.44908   1.000
    N121    N    0.99906   0.25037   0.49836   1.000
    O122    O    0.00547   0.27271   0.44859   1.000
    O123    O    0.01565   0.25635   0.56005   1.000
    O124    O    0.98241   0.24466   0.43671   1.000
    O125    O    0.99230   0.22855   0.54819   1.000
    N126    N    0.00076   0.75136   0.49802   1.000
    O127    O    0.99415   0.72917   0.54786   1.000
    O128    O    0.00717   0.77359   0.44819   1.000
    O129    O    0.01694   0.75740   0.55970   1.000
    O130    O    0.98445   0.74529   0.43636   1.000
    N131    N    0.24857   0.50025   0.49706   1.000
    O132    O    0.21793   0.52331   0.44786   1.000
    O133    O    0.26409   0.50652   0.55857   1.000
    O134    O    0.23297   0.49406   0.43555   1.000
    O135    O    0.27932   0.47740   0.54625   1.000
    N136    N    0.21120   0.50281   0.82188   1.000
    O137    O    0.24521   0.45717   0.81861   1.000
    O138    O    0.17771   0.54170   0.81778   1.000
    O139    O    0.24715   0.49292   0.75830   1.000
    N140    N    0.42166   0.31419   0.74186   1.000
    O141    O    0.38072   0.33783   0.76805   1.000
    O142    O    0.38037   0.37144   0.70613   1.000
    O143    O    0.44994   0.28823   0.70860   1.000
    N144    N    0.20611   0.99949   0.81947   1.000
    O145    O    0.24623   0.99235   0.75897   1.000
    O146    O    0.17464   0.03946   0.81625   1.000
    O147    O    0.24259   0.95539   0.81813   1.000
    N148    N    0.95214   0.55957   0.73797   1.000
    O149    O    0.90656   0.53491   0.70523   1.000
    O150    O    0.00563   0.58426   0.76509   1.000
    O151    O    0.97479   0.61958   0.70479   1.000
    N152    N    0.44948   0.56061   0.74014   1.000
    O153    O    0.40389   0.53544   0.70685   1.000
    O154    O    0.50326   0.58459   0.76594   1.000
    O155    O    0.47182   0.62030   0.70623   1.000
    N156    N    0.45175   0.06108   0.74085   1.000
    O157    O    0.50555   0.08499   0.76692   1.000
    O158    O    0.47390   0.12069   0.70680   1.000
    O159    O    0.40618   0.03626   0.70816   1.000
    N160    N    0.95218   0.06092   0.74121   1.000
    O161    O    0.90712   0.03542   0.70812   1.000
    O162    O    0.00550   0.08554   0.76772   1.000
    O163    O    0.97435   0.12042   0.70701   1.000
    N164    N    0.80119   0.74770   0.17237   1.000
    O165    O    0.83636   0.79391   0.17631   1.000
    O166    O    0.86793   0.75792   0.23631   1.000
    O167    O    0.76909   0.70877   0.17615   1.000
    N168    N    0.70442   0.24824   0.81718   1.000
    O169    O    0.66726   0.20374   0.81558   1.000
    O170    O    0.73430   0.28858   0.81431   1.000
    O171    O    0.63391   0.24166   0.75756   1.000
    N172    N    0.70336   0.74742   0.81605   1.000
    O173    O    0.66584   0.70314   0.81425   1.000
    O174    O    0.73359   0.78745   0.81347   1.000
    O175    O    0.63278   0.74108   0.75664   1.000
    N176    N    0.20396   0.74953   0.81915   1.000
    O177    O    0.13473   0.74215   0.75787   1.000
    O178    O    0.23425   0.78980   0.81675   1.000
    O179    O    0.16664   0.70520   0.81677   1.000
    N180    N    0.70519   0.49794   0.81598   1.000
    O181    O    0.74576   0.49100   0.75573   1.000
    O182    O    0.67351   0.53771   0.81271   1.000
    O183    O    0.74190   0.45407   0.81481   1.000
    N184    N    0.70625   0.99728   0.81703   1.000
    O185    O    0.74697   0.99025   0.75715   1.000
    O186    O    0.67502   0.03738   0.81406   1.000
    O187    O    0.74261   0.95298   0.81553   1.000
    N188    N    0.85893   0.37118   0.99754   1.000
    O189    O    0.87952   0.37528   0.05626   1.000
    O190    O    0.84868   0.36459   0.93783   1.000
    N191    N    0.85897   0.87042   0.99779   1.000
    O192    O    0.87995   0.87512   0.05655   1.000
    O193    O    0.84858   0.86316   0.93804   1.000
    N194    N    0.49994   0.25115   0.49866   1.000
    O195    O    0.48416   0.24499   0.43697   1.000
    O196    O    0.51564   0.25737   0.56032   1.000
    O197    O    0.50664   0.27344   0.44898   1.000
    O198    O    0.49299   0.22905   0.54831   1.000
    N199    N    0.24960   0.00194   0.50012   1.000
    O200    O    0.21897   0.02507   0.45097   1.000
    O201    O    0.28060   0.97904   0.54926   1.000
    O202    O    0.26566   0.00835   0.56162   1.000
    O203    O    0.23388   0.99573   0.43863   1.000
    N204    N    0.78617   0.49762   0.17163   1.000
    O205    O    0.81993   0.45871   0.17570   1.000
    O206    O    0.75315   0.54360   0.17557   1.000
    O207    O    0.75145   0.50784   0.23593   1.000
    N208    N    0.78682   0.99782   0.17305   1.000
    O209    O    0.82085   0.95915   0.17692   1.000
    O210    O    0.75334   0.04348   0.17669   1.000
    O211    O    0.75229   0.00811   0.23755   1.000
    N212    N    0.14092   0.12193   0.99999   1.000
    O213    O    0.12150   0.11520   0.93991   1.000
    O214    O    0.14920   0.12626   0.05873   1.000
    N215    N    0.64098   0.62062   0.99726   1.000
    O216    O    0.62117   0.61360   0.93706   1.000
    O217    O    0.64945   0.62500   0.05595   1.000
    N218    N    0.14076   0.63102   0.99645   1.000
    O219    O    0.11966   0.62605   0.93793   1.000
    O220    O    0.15125   0.63698   0.05676   1.000
    N221    N    0.64099   0.11958   0.99757   1.000
    O222    O    0.62185   0.11272   0.93774   1.000
    O223    O    0.64920   0.12383   0.05625   1.000
loop_
    _geom_bond_atom_site_label_1
    _geom_bond_atom_site_label_2
    _geom_bond_distance
    _geom_bond_site_symmetry_2
    _ccdc_geom_bond_type
    N32    O33       1.45888      .   S
    Zr5    O33       2.49882      .   S
    N32    O34       1.09977      .   S
    Zr1    O34       2.06872      .   S
    N32    O35       0.97771      .   S
    Zr25   O35       1.95895      .   S
    N36    O37       1.09475  1_565   S
    Zr24   O37       2.06686      .   S
    N36    O38       0.98529      .   S
    Zr1    O38       1.96625      .   S
    N36    O39       1.44671  1_565   S
    Zr28   O39       2.48150      .   S
    N40    O41       1.45112      .   S
    Zr29   O41       2.49498      .   S
    N40    O42       1.00310      .   S
    Zr7    O42       2.01010  1_655   S
    N40    O43       1.08927      .   S
    Zr25   O43       2.05683      .   S
    N44    O45       1.45568      .   S
    Zr30   O45       2.50637      .   S
    N44    O46       0.99942      .   S
    Zr4    O46       2.00577      .   S
    N44    O47       1.09349      .   S
    Zr26   O47       2.06302      .   S
    N48    O49       1.45249      .   S
    Zr31   O49       2.49809      .   S
    N48    O50       0.99696      .   S
    Zr5    O50       1.99964      .   S
    N48    O51       1.09333      .   S
    Zr27   O51       2.06282      .   S
    N52    O53       0.98603  1_556   S
    Zr0    O53       1.88716      .   S
    N52    O54       1.00783      .   S
    Zr8    O54       1.91917      .   S
    N55    O56       0.99571      .   S
    Zr1    O56       1.89724      .   S
    N55    O57       1.00018  1_554   S
    Zr9    O57       1.90527      .   S
    N58    O59       1.08731      .   S
    Zr9    O59       2.05368      .   S
    N58    O60       1.44918      .   S
    Zr13   O60       2.48885      .   S
    N58    O61       0.99711      .   S
    Zr23   O61       1.99781      .   S
    N62    O63       1.08724      .   S
    Zr10   O63       2.05300      .   S
    N62    O64       1.44670      .   S
    Zr14   O64       2.48336      .   S
    N62    O65       0.99537      .   S
    Zr20   O65       1.99473  1_455   S
    N66    O67       1.08797      .   S
    Zr11   O67       2.05470      .   S
    N66    O68       0.99917      .   S
    Zr21   O68       2.00013  1_455   S
    N66    O69       1.44674      .   S
    Zr15   O69       2.48258      .   S
    N70    O71       1.00005      .   S
    Zr28   O71       2.00792  1_545   S
    N70    O72       1.45680      .   S
    Zr7    O72       2.50470  1_655   S
    N70    O73       1.09470  1_455   S
    Zr3    O73       2.06338      .   S
    N74    O75       0.99743      .   S
    Zr31   O75       2.00124      .   S
    N74    O76       1.45369      .   S
    Zr4    O76       2.49914      .   S
    N74    O77       1.09228      .   S
    Zr0    O77       2.05901      .   S
    N78    O79       0.99967      .   S
    Zr30   O79       2.00572  1_545   S
    N78    O80       1.45395      .   S
    Zr5    O80       2.49927      .   S
    N78    O81       1.09174      .   S
    Zr1    O81       2.05745      .   S
    N82    O83       0.99429      .   S
    Zr29   O83       1.99741      .   S
    N82    O84       1.09433  1_455   S
    Zr2    O84       2.06160      .   S
    N82    O85       1.45741      .   S
    Zr6    O85       2.50465  1_655   S
    N86    O87       1.44852      .   S
    Zr6    O87       2.48469      .   S
    N86    O88       1.09460      .   S
    Zr2    O88       2.06511      .   S
    N86    O89       0.98530      .   S
    Zr26   O89       1.96805      .   S
    N90    O91       1.10083      .   S
    Zr25   O91       2.07358      .   S
    N90    O92       1.45084      .   S
    Zr29   O92       2.48967      .   S
    N90    O93       0.98339      .   S
    Zr0    O93       1.96761      .   S
    N94    O95       1.09229      .   S
    Zr24   O95       2.06115      .   S
    N94    O96       0.99941      .   S
    Zr6    O96       2.00404  1_655   S
    N94    O97       1.44945      .   S
    Zr28   O97       2.49238      .   S
    N98    O99       1.44894      .   S
    Zr4    O99       2.48625      .   S
    N98    O100      0.98452      .   S
    Zr24   O100      1.96636      .   S
    N98    O101      1.09579      .   S
    Zr0    O101      2.06740      .   S
    N102   O103      1.04064      .   S
    Zr30   O103      1.82124      .   S
    N102   O104      1.04090  1_545   S
    Zr15   O104      1.82648      .   S
    N102   O105      1.02811      .   S
    Zr15   O105      1.84712  1_565   S
    N102   O106      1.02602  1_545   S
    Zr30   O106      1.84498  1_545   S
    N107   O108      1.03923      .   S
    Zr31   O108      1.82266      .   S
    N107   O109      1.03621      .   S
    Zr14   O109      1.81926      .   S
    N107   O110      1.02668      .   S
    Zr14   O110      1.83485      .   S
    N107   O111      1.02694      .   S
    Zr31   O111      1.84279      .   S
    N112   O113      1.46234      .   S
    Zr20   O113      2.50875      .   S
    N112   O114      0.97463      .   S
    Zr8    O114      1.95456      .   S
    N112   O115      1.10178      .   S
    Zr16   O115      2.06817      .   S
    N116   O117      1.02987      .   S
    Zr5    O117      1.84693      .   S
    N116   O118      1.02945      .   S
    Zr23   O118      1.84475      .   S
    N116   O119      1.03961      .   S
    Zr23   O119      1.82822      .   S
    N116   O120      1.04029      .   S
    Zr5    O120      1.82996      .   S
    N121   O122      1.03911  1_655   S
    Zr6    O122      1.82801  1_655   S
    N121   O123      1.02996  1_655   S
    Zr20   O123      1.83965      .   S
    N121   O124      1.02949      .   S
    Zr6    O124      1.84387      .   S
    N121   O125      1.03735      .   S
    Zr20   O125      1.82747  1_455   S
    N126   O127      1.04014  1_455   S
    Zr21   O127      1.82930  1_455   S
    N126   O128      1.03897      .   S
    Zr7    O128      1.82772  1_655   S
    N126   O129      1.02970      .   S
    Zr21   O129      1.84664      .   S
    N126   O130      1.02942  1_455   S
    Zr7    O130      1.84341      .   S
    N131   O132      1.03916      .   S
    Zr29   O132      1.82191      .   S
    N131   O133      1.02674      .   S
    Zr12   O133      1.83880      .   S
    N131   O134      1.02673      .   S
    Zr29   O134      1.84224      .   S
    N131   O135      1.03781      .   S
    Zr12   O135      1.82073      .   S
    N136   O137      1.09985      .   S
    Zr8    O137      2.07101      .   S
    N136   O138      0.98155      .   S
    Zr17   O138      1.96284      .   S
    N136   O139      1.45153      .   S
    Zr12   O139      2.49141      .   S
    N140   O141      1.08805      .   S
    Zr8    O141      2.05364      .   S
    N140   O142      1.44765      .   S
    Zr12   O142      2.48568      .   S
    N140   O143      0.99610      .   S
    Zr22   O143      1.99698      .   S
    N144   O145      1.45877      .   S
    Zr13   O145      2.49864      .   S
    N144   O146      0.97424  1_565   S
    Zr16   O146      1.95323      .   S
    N144   O147      1.10226      .   S
    Zr9    O147      2.06980      .   S
    N148   O149      0.99366      .   S
    Zr14   O149      1.99431      .   S
    N148   O150      1.09033  1_655   S
    Zr17   O150      2.05447      .   S
    N148   O151      1.45247      .   S
    Zr21   O151      2.49470  1_455   S
    N152   O153      1.00069      .   S
    Zr12   O153      2.00700      .   S
    N152   O154      1.08679      .   S
    Zr19   O154      2.04991      .   S
    N152   O155      1.45192      .   S
    Zr23   O155      2.49312      .   S
    N156   O157      1.08707      .   S
    Zr18   O157      2.05054      .   S
    N156   O158      1.45064      .   S
    Zr22   O158      2.48902      .   S
    N156   O159      0.99454      .   S
    Zr13   O159      1.99370  1_565   S
    N160   O161      0.99523      .   S
    Zr15   O161      1.99576  1_565   S
    N160   O162      1.08577  1_655   S
    Zr16   O162      2.04737      .   S
    N160   O163      1.45069      .   S
    Zr20   O163      2.48904  1_455   S
    N164   O165      1.09691      .   S
    Zr3    O165      2.06970      .   S
    N164   O166      1.44961      .   S
    Zr7    O166      2.48752      .   S
    N164   O167      0.98402      .   S
    Zr27   O167      1.96674      .   S
    N168   O169      1.10302      .   S
    Zr18   O169      2.07095      .   S
    N168   O170      0.97403      .   S
    Zr10   O170      1.95438      .   S
    N168   O171      1.46149      .   S
    Zr22   O171      2.50596      .   S
    N172   O173      1.10336      .   S
    Zr19   O173      2.07040      .   S
    N172   O174      0.97195      .   S
    Zr11   O174      1.95141      .   S
    N172   O175      1.46070      .   S
    Zr23   O175      2.50363      .   S
    N176   O177      1.45751      .   S
    Zr21   O177      2.49495      .   S
    N176   O178      0.97533      .   S
    Zr9    O178      1.95387      .   S
    N176   O179      1.09949      .   S
    Zr17   O179      2.06681      .   S
    N180   O181      1.46121      .   S
    Zr14   O181      2.50565      .   S
    N180   O182      0.97347      .   S
    Zr19   O182      1.95246      .   S
    N180   O183      1.10141      .   S
    Zr10   O183      2.06751      .   S
    N184   O185      1.45774      .   S
    Zr15   O185      2.49663      .   S
    N184   O186      0.97359  1_565   S
    Zr18   O186      1.95314      .   S
    N184   O187      1.10406      .   S
    Zr11   O187      2.07298      .   S
    N188   O189      0.98748  1_556   S
    Zr2    O189      1.88405      .   S
    N188   O190      1.00041      .   S
    Zr10   O190      1.90508      .   S
    N191   O192      0.98889  1_556   S
    Zr3    O192      1.88696      .   S
    N191   O193      1.00122      .   S
    Zr11   O193      1.90714      .   S
    N194   O195      1.02968      .   S
    Zr4    O195      1.84385      .   S
    N194   O196      1.02927      .   S
    Zr22   O196      1.84211      .   S
    N194   O197      1.03904      .   S
    Zr4    O197      1.82851      .   S
    N194   O198      1.03853      .   S
    Zr22   O198      1.82686      .   S
    N199   O200      1.03917      .   S
    Zr28   O200      1.82156      .   S
    N199   O201      1.03929  1_545   S
    Zr13   O201      1.82167      .   S
    N199   O202      1.02668      .   S
    Zr13   O202      1.84221  1_565   S
    N199   O203      1.02654  1_545   S
    Zr28   O203      1.84201  1_545   S
    N204   O205      0.98512      .   S
    Zr2    O205      1.96648      .   S
    N204   O206      1.09541      .   S
    Zr27   O206      2.06684      .   S
    N204   O207      1.44706      .   S
    Zr31   O207      2.47990      .   S
    N208   O209      0.98482      .   S
    Zr3    O209      1.96718      .   S
    N208   O210      1.09515  1_565   S
    Zr26   O210      2.06630      .   S
    N208   O211      1.44773  1_565   S
    Zr30   O211      2.48221      .   S
    N212   O213      1.00717      .   S
    Zr16   O213      1.91756      .   S
    N212   O214      0.98745  1_556   S
    Zr24   O214      1.88692      .   S
    N215   O216      1.00979      .   S
    Zr19   O216      1.92197      .   S
    N215   O217      0.98629  1_556   S
    Zr27   O217      1.88430      .   S
    N218   O219      0.98524      .   S
    Zr17   O219      1.88307      .   S
    N218   O220      1.00996  1_556   S
    Zr25   O220      1.92217      .   S
    N221   O222      1.00259      .   S
    Zr18   O222      1.90955      .   S
    N221   O223      0.98665  1_556   S
    Zr26   O223      1.88324      .   S
