# CIF file generated by openbabel 2.4.90, see http://openbabel.sf.net
data_I
_chemical_name_common ''
_cell_length_a 13.417
_cell_length_b 13.831
_cell_length_c 16.197
_cell_angle_alpha 90.001
_cell_angle_beta 90.054
_cell_angle_gamma 90.106
_space_group_name_H-M_alt 'P 1'
_space_group_name_Hall 'P 1'
loop_
    _symmetry_equiv_pos_as_xyz
    x,y,z
loop_
    _atom_site_label
    _atom_site_type_symbol
    _atom_site_fract_x
    _atom_site_fract_y
    _atom_site_fract_z
    _atom_site_occupancy
    H0      H    0.78416   0.70320   0.31778   1.000
    H1      H    0.28389   0.70330   0.31813   1.000
    H2      H    0.78426   0.82027   0.19897   1.000
    H3      H    0.28428   0.82039   0.19930   1.000
    H4      H    0.46586   0.67943   0.30058   1.000
    H5      H    0.00000   0.67935   0.30025   1.000
    H6      H    0.46613   0.79674   0.18186   1.000
    H7      H    0.00000   0.79665   0.18153   1.000
    H8      H    0.46513   0.79808   0.81554   1.000
    H9      H    0.00000   0.79813   0.81526   1.000
    H10     H    0.46625   0.68098   0.69671   1.000
    H11     H    0.00000   0.68107   0.69642   1.000
    H12     H    0.78385   0.81942   0.80280   1.000
    H13     H    0.28379   0.81914   0.80318   1.000
    H14     H    0.78481   0.70213   0.68407   1.000
    H15     H    0.28497   0.70182   0.68448   1.000
    H16     H    0.71583   0.29677   0.68217   1.000
    H17     H    0.21613   0.29674   0.68190   1.000
    H18     H    0.71571   0.17971   0.80097   1.000
    H19     H    0.21576   0.17966   0.80074   1.000
    H20     H    0.03411   0.32064   0.69946   1.000
    H21     H    0.53436   0.32066   0.69974   1.000
    H22     H    0.03383   0.20334   0.81819   1.000
    H23     H    0.53384   0.20335   0.81844   1.000
    H24     H    0.03492   0.20198   0.18448   1.000
    H25     H    0.53494   0.20189   0.18474   1.000
    H26     H    0.03378   0.31908   0.30330   1.000
    H27     H    0.53364   0.31894   0.30359   1.000
    H28     H    0.71620   0.18059   0.19721   1.000
    H29     H    0.21617   0.18093   0.19684   1.000
    H30     H    0.71523   0.29787   0.31595   1.000
    H31     H    0.21501   0.29824   0.31553   1.000
    C32     C    0.62458   0.61616   0.38738   1.000
    C33     C    0.12425   0.61624   0.38745   1.000
    C34     C    0.62492   0.68507   0.31637   1.000
    C35     C    0.12468   0.68510   0.31639   1.000
    C36     C    0.71498   0.72431   0.28769   1.000
    C37     C    0.21480   0.72439   0.28787   1.000
    C38     C    0.62560   0.88392   0.11256   1.000
    C39     C    0.12574   0.88394   0.11257   1.000
    C40     C    0.62522   0.81503   0.18377   1.000
    C41     C    0.12528   0.81505   0.18377   1.000
    C42     C    0.71516   0.78885   0.22187   1.000
    C43     C    0.21512   0.78892   0.22205   1.000
    C44     C    0.53501   0.71115   0.27810   1.000
    C45     C    0.03488   0.71112   0.27793   1.000
    C46     C    0.53515   0.77573   0.21230   1.000
    C47     C    0.03515   0.77569   0.21212   1.000
    C48     C    0.62405   0.88380   0.88743   1.000
    C49     C    0.12388   0.88375   0.88745   1.000
    C50     C    0.62450   0.81496   0.81637   1.000
    C51     C    0.12440   0.81487   0.81641   1.000
    C52     C    0.53466   0.77646   0.78638   1.000
    C53     C    0.03461   0.77645   0.78625   1.000
    C54     C    0.62604   0.61619   0.61252   1.000
    C55     C    0.12622   0.61609   0.61256   1.000
    C56     C    0.62557   0.68505   0.68374   1.000
    C57     C    0.12571   0.68494   0.68379   1.000
    C58     C    0.53517   0.71192   0.72056   1.000
    C59     C    0.03523   0.71191   0.72042   1.000
    C60     C    0.71487   0.78818   0.77938   1.000
    C61     C    0.21485   0.78798   0.77961   1.000
    C62     C    0.71543   0.72362   0.71358   1.000
    C63     C    0.21551   0.72340   0.71381   1.000
    C64     C    0.87540   0.38387   0.61261   1.000
    C65     C    0.37577   0.38379   0.61256   1.000
    C66     C    0.87506   0.31496   0.68363   1.000
    C67     C    0.37535   0.31493   0.68362   1.000
    C68     C    0.78500   0.27569   0.71228   1.000
    C69     C    0.28523   0.27565   0.71215   1.000
    C70     C    0.87436   0.11612   0.88745   1.000
    C71     C    0.37430   0.11607   0.88743   1.000
    C72     C    0.87474   0.18500   0.81624   1.000
    C73     C    0.37476   0.18497   0.81624   1.000
    C74     C    0.78482   0.21115   0.77810   1.000
    C75     C    0.28492   0.21111   0.77797   1.000
    C76     C    0.96496   0.28890   0.72192   1.000
    C77     C    0.46516   0.28889   0.72206   1.000
    C78     C    0.96482   0.22432   0.78773   1.000
    C79     C    0.46489   0.22431   0.78787   1.000
    C80     C    0.87601   0.11623   0.11259   1.000
    C81     C    0.37607   0.11631   0.11254   1.000
    C82     C    0.87555   0.18507   0.18364   1.000
    C83     C    0.37556   0.18518   0.18359   1.000
    C84     C    0.96539   0.22359   0.21363   1.000
    C85     C    0.46536   0.22358   0.21376   1.000
    C86     C    0.87398   0.38386   0.38748   1.000
    C87     C    0.37377   0.38395   0.38745   1.000
    C88     C    0.87445   0.31499   0.31627   1.000
    C89     C    0.37427   0.31510   0.31622   1.000
    C90     C    0.96486   0.28813   0.27945   1.000
    C91     C    0.46475   0.28812   0.27958   1.000
    C92     C    0.78518   0.21183   0.22063   1.000
    C93     C    0.28512   0.21207   0.22040   1.000
    C94     C    0.78461   0.27640   0.28643   1.000
    C95     C    0.28446   0.27665   0.28620   1.000
    O96     O    0.54113   0.90797   0.08301   1.000
    O97     O    0.04130   0.90806   0.08304   1.000
    O98     O    0.53990   0.58764   0.41352   1.000
    O99     O    0.03948   0.58784   0.41360   1.000
    O100    O    0.71047   0.91207   0.08664   1.000
    O101    O    0.21064   0.91203   0.08662   1.000
    O102    O    0.70893   0.59172   0.41707   1.000
    O103    O    0.20858   0.59178   0.41711   1.000
    O104    O    0.71087   0.58838   0.58649   1.000
    O105    O    0.21108   0.58836   0.58646   1.000
    O106    O    0.70849   0.90853   0.91697   1.000
    O107    O    0.20830   0.90851   0.91698   1.000
    O108    O    0.54148   0.59183   0.58313   1.000
    O109    O    0.04170   0.59166   0.58320   1.000
    O110    O    0.53939   0.91195   0.91370   1.000
    O111    O    0.03917   0.91187   0.91370   1.000
    O112    O    0.95882   0.09206   0.91698   1.000
    O113    O    0.45874   0.09198   0.91698   1.000
    O114    O    0.96009   0.41238   0.58648   1.000
    O115    O    0.46055   0.41219   0.58640   1.000
    O116    O    0.78948   0.08799   0.91338   1.000
    O117    O    0.28941   0.08796   0.91336   1.000
    O118    O    0.79106   0.40831   0.58292   1.000
    O119    O    0.29144   0.40826   0.58291   1.000
    O120    O    0.78916   0.41168   0.41350   1.000
    O121    O    0.28891   0.41167   0.41356   1.000
    O122    O    0.79158   0.09149   0.08305   1.000
    O123    O    0.29165   0.09155   0.08301   1.000
    O124    O    0.95854   0.40821   0.41689   1.000
    O125    O    0.45829   0.40838   0.41680   1.000
    O126    O    0.96068   0.08808   0.08631   1.000
    O127    O    0.46077   0.08819   0.08629   1.000
loop_
    _geom_bond_atom_site_label_1
    _geom_bond_atom_site_label_2
    _geom_bond_distance
    _geom_bond_site_symmetry_2
    _ccdc_geom_bond_type
    O123   C81       1.27534      .   S
    O96    C38       1.27453      .   S
    O97    C39       1.27428      .   S
    O122   C80       1.27539      .   S
    O127   C81       1.27523      .   S
    O126   C80       1.27507      .   S
    O101   C39       1.27452      .   S
    O100   C38       1.27420      .   S
    C81    C83       1.49393      .   S
    C38    C40       1.49602      .   S
    C39    C41       1.49597      .   S
    C80    C82       1.49376      .   S
    H7     C47       0.74295      .   S
    H6     C46       1.08869      .   S
    C83    C85       1.40319      .   S
    C83    C93       1.40331      .   S
    C82    C84       1.40320      .   S
    C82    C92       1.40332      .   S
    C40    C46       1.40290      .   S
    C40    C42       1.40293      .   S
    C41    C47       1.40291      .   S
    C41    C43       1.40292      .   S
    H24    C84       1.08840  1_455   S
    H25    C85       1.08840      .   S
    H29    C93       1.08854      .   S
    H28    C92       1.08855      .   S
    H2     C42       1.08869      .   S
    H3     C43       1.08870      .   S
    C47    C45       1.39058      .   S
    C46    C44       1.39060      .   S
    C84    C90       1.39045      .   S
    C85    C91       1.39048      .   S
    C93    C95       1.39053      .   S
    C92    C94       1.39052      .   S
    C42    C36       1.39042      .   S
    C43    C37       1.39047      .   S
    C45    H5        0.73644      .   S
    C45    C35       1.40335      .   S
    C44    H4        1.08860      .   S
    C44    C34       1.40341      .   S
    C90    H26       1.08868  1_655   S
    C90    C88       1.40285      .   S
    C91    H27       1.08871      .   S
    C91    C89       1.40288      .   S
    C95    H31       1.08862      .   S
    C95    C89       1.40281      .   S
    C94    H30       1.08866      .   S
    C94    C88       1.40282      .   S
    C36    C34       1.40324      .   S
    C36    H0        1.08841      .   S
    C37    C35       1.40330      .   S
    C37    H1        1.08844      .   S
    C89    C87       1.49590      .   S
    C88    C86       1.49596      .   S
    C34    C32       1.49379      .   S
    C35    C33       1.49401      .   S
    C32    O98       1.27478      .   S
    C32    O102      1.27538      .   S
    C33    O99       1.27544      .   S
    C33    O103      1.27503      .   S
    C87    O121      1.27463      .   S
    C87    O125      1.27427      .   S
    C86    O120      1.27408      .   S
    C86    O124      1.27480      .   S
    O119   C65       1.27502      .   S
    O118   C64       1.27541      .   S
    O108   C54       1.27478      .   S
    O109   C55       1.27429      .   S
    O115   C65       1.27548      .   S
    O105   C55       1.27460      .   S
    O114   C64       1.27475      .   S
    O104   C54       1.27414      .   S
    C54    C56       1.49596      .   S
    C55    C57       1.49590      .   S
    C65    C67       1.49400      .   S
    C64    C66       1.49381      .   S
    H17    C69       1.08845      .   S
    H16    C68       1.08839      .   S
    C67    C69       1.40329      .   S
    C67    C77       1.40335      .   S
    C66    C68       1.40324      .   S
    C66    C76       1.40341      .   S
    C56    C62       1.40283      .   S
    C56    C58       1.40284      .   S
    C57    C63       1.40282      .   S
    C57    C59       1.40288      .   S
    H14    C62       1.08865      .   S
    H15    C63       1.08863      .   S
    H11    C59       0.74530      .   S
    H10    C58       1.08868      .   S
    H20    C76       1.08860  1_455   S
    H21    C77       1.08856      .   S
    C69    C75       1.39049      .   S
    C68    C74       1.39041      .   S
    C62    C60       1.39051      .   S
    C63    C61       1.39052      .   S
    C59    C53       1.39046      .   S
    C58    C52       1.39046      .   S
    C76    C78       1.39061      .   S
    C77    C79       1.39058      .   S
    C75    H19       1.08870      .   S
    C75    C73       1.40292      .   S
    C74    H18       1.08868      .   S
    C74    C72       1.40291      .   S
    C60    H12       1.08854      .   S
    C60    C50       1.40331      .   S
    C61    H13       1.08855      .   S
    C61    C51       1.40333      .   S
    C53    H9        0.72621      .   S
    C53    C51       1.40320      .   S
    C52    H8        1.08841      .   S
    C52    C50       1.40320      .   S
    C78    C72       1.40290      .   S
    C78    H22       1.08870  1_655   S
    C79    C73       1.40292      .   S
    C79    H23       1.08868      .   S
    C72    C70       1.49605      .   S
    C73    C71       1.49596      .   S
    C50    C48       1.49378      .   S
    C51    C49       1.49390      .   S
    C48    O110      1.27495      .   S
    C48    O106      1.27547      .   S
    C71    O117      1.27439      .   S
    C71    O113      1.27433      .   S
    C70    O116      1.27431      .   S
    C70    O112      1.27444      .   S
    C49    O111      1.27532      .   S
    C49    O107      1.27524      .   S
