# CIF file generated by openbabel 2.4.90, see http://openbabel.sf.net
data_I
_chemical_name_common ''
_cell_length_a 13.417
_cell_length_b 13.831
_cell_length_c 16.197
_cell_angle_alpha 90.001
_cell_angle_beta 90.054
_cell_angle_gamma 90.106
_space_group_name_H-M_alt 'P 1'
_space_group_name_Hall 'P 1'
loop_
    _symmetry_equiv_pos_as_xyz
    x,y,z
loop_
    _atom_site_label
    _atom_site_type_symbol
    _atom_site_fract_x
    _atom_site_fract_y
    _atom_site_fract_z
    _atom_site_occupancy
    H0      H    0.62538   0.12615   0.01557   1.000
    H1      H    0.12538   0.12641   0.01461   1.000
    H2      H    0.62482   0.37426   0.51677   1.000
    H3      H    0.12477   0.37299   0.51197   1.000
    H4      H    0.87461   0.87406   0.98385   1.000
    H5      H    0.37463   0.87338   0.98635   1.000
    H6      H    0.87519   0.62590   0.48364   1.000
    H7      H    0.37523   0.62702   0.48796   1.000
    O8      O    0.62510   0.05845   0.99995   1.000
    O9      O    0.12509   0.05841   0.99997   1.000
    O10     O    0.62491   0.44157   0.49994   1.000
    O11     O    0.12488   0.44170   0.50006   1.000
    O12     O    0.87491   0.94157   0.00000   1.000
    O13     O    0.37491   0.94164   0.00000   1.000
    O14     O    0.87509   0.55846   0.50007   1.000
    O15     O    0.37512   0.55834   0.49996   1.000
loop_
    _geom_bond_atom_site_label_1
    _geom_bond_atom_site_label_2
    _geom_bond_distance
    _geom_bond_site_symmetry_2
    _ccdc_geom_bond_type
    O12    H4        0.96960  1_554   S
    O13    H5        0.96972  1_554   S
    H1     O9        0.96983  1_554   S
    H0     O8        0.96990  1_554   S
    H6     O14       0.96994      .   S
    H7     O15       0.96971      .   S
    O10    H2        0.96996      .   S
    O11    H3        0.96972      .   S
