# CIF file generated by openbabel 2.4.90, see http://openbabel.sf.net
data_I
_chemical_name_common ''
_cell_length_a 13.417
_cell_length_b 13.831
_cell_length_c 16.197
_cell_angle_alpha 90.001
_cell_angle_beta 90.054
_cell_angle_gamma 90.106
_space_group_name_H-M_alt 'P 1'
_space_group_name_Hall 'P 1'
loop_
    _symmetry_equiv_pos_as_xyz
    x,y,z
loop_
    _atom_site_label
    _atom_site_type_symbol
    _atom_site_fract_x
    _atom_site_fract_y
    _atom_site_fract_z
    _atom_site_occupancy
    Zr0     Zr   0.99999   0.00000   0.00002   1.000
    Zr1     Zr   0.50001   0.00000   0.99998   1.000
    Zr2     Zr   0.75000   0.50002   0.50000   1.000
    Zr3     Zr   0.25000   0.50001   0.50001   1.000
    Zr4     Zr   0.75000   0.00001   0.00001   1.000
    Zr5     Zr   0.24999   0.99999   0.99998   1.000
    Zr6     Zr   0.99997   0.50001   0.50007   1.000
    Zr7     Zr   0.50004   0.50002   0.49994   1.000
    N8      N    0.62509   0.74995   0.24997   1.000
    O9      O    0.57283   0.85197   0.14573   1.000
    O10     O    0.57253   0.64689   0.35335   1.000
    O11     O    0.67766   0.85300   0.14665   1.000
    O12     O    0.67728   0.64791   0.35425   1.000
    N13     N    0.12926   0.74999   0.24998   1.000
    O14     O    0.07495   0.85201   0.14576   1.000
    O15     O    0.07449   0.64696   0.35341   1.000
    O16     O    0.17979   0.85300   0.14664   1.000
    O17     O    0.17927   0.64794   0.35427   1.000
    N18     N    0.87501   0.24994   0.25005   1.000
    O19     O    0.92713   0.35203   0.35426   1.000
    O20     O    0.92767   0.14699   0.14661   1.000
    O21     O    0.82229   0.35289   0.35340   1.000
    O22     O    0.82290   0.14784   0.14579   1.000
    N23     N    0.37492   0.25005   0.25001   1.000
    O24     O    0.32287   0.14791   0.14575   1.000
    O25     O    0.42704   0.35212   0.35419   1.000
    O26     O    0.42766   0.14707   0.14657   1.000
    O27     O    0.32219   0.35294   0.35339   1.000
    N28     N    0.62503   0.75009   0.74996   1.000
    O29     O    0.67773   0.64715   0.64660   1.000
    O30     O    0.67714   0.85218   0.85423   1.000
    O31     O    0.57290   0.64801   0.64575   1.000
    O32     O    0.57236   0.85303   0.85340   1.000
    N33     N    0.12934   0.75000   0.75000   1.000
    O34     O    0.07446   0.85297   0.85343   1.000
    O35     O    0.17994   0.64709   0.64662   1.000
    O36     O    0.17924   0.85212   0.85424   1.000
    O37     O    0.07509   0.64792   0.64582   1.000
    N38     N    0.37504   0.25003   0.75002   1.000
    O39     O    0.42721   0.14801   0.85425   1.000
    O40     O    0.42767   0.35307   0.64660   1.000
    O41     O    0.32237   0.14700   0.85335   1.000
    O42     O    0.32288   0.35208   0.64574   1.000
    N43     N    0.87488   0.25008   0.75003   1.000
    O44     O    0.92714   0.14805   0.85427   1.000
    O45     O    0.92745   0.35314   0.64665   1.000
    O46     O    0.82231   0.14704   0.85336   1.000
    O47     O    0.82271   0.35212   0.64574   1.000
    C48     C    0.62524   0.09230   0.00776   1.000
    O49     O    0.59390   0.06076   0.00387   1.000
    O50     O    0.65639   0.06076   0.00387   1.000
    C51     C    0.87476   0.90782   0.99192   1.000
    O52     O    0.90611   0.93930   0.99597   1.000
    O53     O    0.84361   0.93930   0.99596   1.000
    C54     C    0.12524   0.09241   0.00729   1.000
    O55     O    0.09389   0.06081   0.00364   1.000
    O56     O    0.15639   0.06081   0.00364   1.000
    C57     C    0.37477   0.90751   0.99318   1.000
    O58     O    0.40612   0.93916   0.99658   1.000
    O59     O    0.34361   0.93916   0.99658   1.000
    C60     C    0.87514   0.59218   0.49185   1.000
    O61     O    0.84385   0.56071   0.49594   1.000
    O62     O    0.90634   0.56071   0.49596   1.000
    C63     C    0.12483   0.40734   0.50601   1.000
    O64     O    0.15613   0.43910   0.50302   1.000
    O65     O    0.09363   0.43910   0.50304   1.000
    C66     C    0.62487   0.40792   0.50835   1.000
    O67     O    0.65616   0.43935   0.50416   1.000
    O68     O    0.59367   0.43936   0.50414   1.000
    C69     C    0.37517   0.59268   0.49396   1.000
    O70     O    0.34387   0.56093   0.49697   1.000
    O71     O    0.40638   0.56093   0.49695   1.000
loop_
    _geom_bond_atom_site_label_1
    _geom_bond_atom_site_label_2
    _geom_bond_distance
    _geom_bond_site_symmetry_2
    _ccdc_geom_bond_type
    N8     O9        2.30964      .   S
    Zr1    O9        3.27463  1_546   S
    N8     O10       2.30902      .   S
    Zr7    O10       3.27211      .   S
    N8     O11       2.30821      .   S
    Zr4    O11       3.27329  1_545   S
    N8     O12       2.31011      .   S
    Zr2    O12       3.27288      .   S
    N13    O14       2.31804      .   S
    Zr0    O14       3.28278  1_645   S
    N13    O15       2.31850      .   S
    Zr6    O15       3.28181  1_655   S
    N13    O16       2.29995      .   S
    Zr5    O16       3.26508  1_556   S
    N13    O17       2.30155      .   S
    Zr3    O17       3.26524      .   S
    N18    O19       2.30777      .   S
    Zr6    O19       3.27253      .   S
    N18    O20       2.31082      .   S
    Zr0    O20       3.27470      .   S
    N18    O21       2.30993      .   S
    Zr2    O21       3.27581      .   S
    N18    O22       2.30837      .   S
    Zr4    O22       3.27125      .   S
    N23    O24       2.30841      .   S
    Zr5    O24       3.27166  1_566   S
    N23    O25       2.30734      .   S
    Zr7    O25       3.27180      .   S
    N23    O26       2.31123      .   S
    Zr1    O26       3.27551  1_556   S
    N23    O27       2.31001      .   S
    Zr3    O27       3.27511      .   S
    N28    O29       2.30992      .   S
    Zr2    O29       3.27584      .   S
    N28    O30       2.30833      .   S
    Zr4    O30       3.27103  1_544   S
    N28    O31       2.30783      .   S
    Zr7    O31       3.27268      .   S
    N28    O32       2.31071      .   S
    Zr1    O32       3.27451  1_545   S
    N33    O34       2.32015      .   S
    Zr0    O34       3.28373  1_644   S
    N33    O35       2.30134      .   S
    Zr3    O35       3.26674      .   S
    N33    O36       2.29968      .   S
    Zr5    O36       3.26265      .   S
    N33    O37       2.31615      .   S
    Zr6    O37       3.28041  1_655   S
    N38    O39       2.30920      .   S
    Zr1    O39       3.27401      .   S
    N38    O40       2.30963      .   S
    Zr7    O40       3.27325      .   S
    N38    O41       2.30851      .   S
    Zr5    O41       3.27343  1_565   S
    N38    O42       2.31008      .   S
    Zr3    O42       3.27373      .   S
    N43    O44       2.30967      .   S
    Zr0    O44       3.27485  1_554   S
    N43    O45       2.30906      .   S
    Zr6    O45       3.27223      .   S
    N43    O46       2.30829      .   S
    Zr4    O46       3.27349  1_554   S
    N43    O47       2.31014      .   S
    Zr2    O47       3.27296      .   S
    C48    O49       0.60858      .   S
    Zr1    O49       1.51428  1_556   S
    C48    O50       0.60800      .   S
    Zr4    O50       1.51375      .   S
    C51    O52       0.60831      .   S
    Zr0    O52       1.51388  1_544   S
    C51    O53       0.60774      .   S
    Zr4    O53       1.51348  1_544   S
    C54    O55       0.60886      .   S
    Zr0    O55       1.51458  1_655   S
    C54    O56       0.60826      .   S
    Zr5    O56       1.51400  1_566   S
    C57    O58       0.60900      .   S
    Zr1    O58       1.51456  1_545   S
    C57    O59       0.60846      .   S
    Zr5    O59       1.51417      .   S
    C60    O61       0.60789      .   S
    Zr2    O61       1.51342      .   S
    C60    O62       0.60800      .   S
    Zr6    O62       1.51358      .   S
    C63    O64       0.60916      .   S
    Zr3    O64       1.51479      .   S
    C63    O65       0.60920      .   S
    Zr6    O65       1.51493  1_655   S
    C66    O67       0.60776      .   S
    Zr2    O67       1.51328      .   S
    C66    O68       0.60788      .   S
    Zr7    O68       1.51346      .   S
    C69    O70       0.60913      .   S
    Zr3    O70       1.51475      .   S
    C69    O71       0.60920      .   S
    Zr7    O71       1.51497      .   S
