# CIF file generated by openbabel 2.4.90, see http://openbabel.sf.net
data_I
_chemical_name_common ''
_cell_length_a 13.417
_cell_length_b 13.831
_cell_length_c 16.197
_cell_angle_alpha 90.001
_cell_angle_beta 90.054
_cell_angle_gamma 90.106
_space_group_name_H-M_alt 'P 1'
_space_group_name_Hall 'P 1'
loop_
    _symmetry_equiv_pos_as_xyz
    x,y,z
loop_
    _atom_site_label
    _atom_site_type_symbol
    _atom_site_fract_x
    _atom_site_fract_y
    _atom_site_fract_z
    _atom_site_occupancy
    Zr0     Zr   0.99999   0.00000   0.00002   1.000
    Zr1     Zr   0.50001   0.00000   0.99998   1.000
    Zr2     Zr   0.75000   0.50002   0.50000   1.000
    Zr3     Zr   0.25000   0.50001   0.50001   1.000
    Zr4     Zr   0.75000   0.00001   0.00001   1.000
    Zr5     Zr   0.24999   0.99999   0.99998   1.000
    Zr6     Zr   0.99997   0.50001   0.50007   1.000
    Zr7     Zr   0.50004   0.50002   0.49994   1.000
    Zr8     Zr   0.62538   0.12615   0.01557   1.000
    Zr9     Zr   0.12538   0.12641   0.01461   1.000
    Zr10    Zr   0.62482   0.37426   0.51677   1.000
    Zr11    Zr   0.12477   0.37299   0.51197   1.000
    Zr12    Zr   0.87461   0.87406   0.98385   1.000
    Zr13    Zr   0.37463   0.87338   0.98635   1.000
    Zr14    Zr   0.87519   0.62590   0.48364   1.000
    Zr15    Zr   0.37523   0.62702   0.48796   1.000
    Zr16    Zr   0.62510   0.05845   0.99995   1.000
    Zr17    Zr   0.12509   0.05841   0.99997   1.000
    Zr18    Zr   0.62491   0.44157   0.49994   1.000
    Zr19    Zr   0.12488   0.44170   0.50006   1.000
    Zr20    Zr   0.87491   0.94157   0.00000   1.000
    Zr21    Zr   0.37491   0.94164   0.00000   1.000
    Zr22    Zr   0.87509   0.55846   0.50007   1.000
    Zr23    Zr   0.37512   0.55834   0.49996   1.000
    O24     O    0.93745   0.97078   0.00001   1.000
    O25     O    0.87476   0.90782   0.99192   1.000
    O26     O    0.37477   0.90751   0.99318   1.000
    O27     O    0.43746   0.97082   0.99999   1.000
    O28     O    0.06254   0.02921   1.00000   1.000
    O29     O    0.12524   0.09241   0.00729   1.000
    O30     O    0.62524   0.09230   0.00776   1.000
    O31     O    0.87514   0.59218   0.49185   1.000
    O32     O    0.37517   0.59268   0.49396   1.000
    O33     O    0.68746   0.47079   0.49997   1.000
    O34     O    0.62487   0.40792   0.50835   1.000
    O35     O    0.31256   0.52918   0.49998   1.000
    O36     O    0.81255   0.52924   0.50003   1.000
    O37     O    0.18744   0.47086   0.50003   1.000
    O38     O    0.12483   0.40734   0.50601   1.000
    O39     O    0.56255   0.02923   0.99997   1.000
    O40     O    0.68755   0.02923   0.99998   1.000
    O41     O    0.18754   0.02920   0.99998   1.000
    O42     O    0.56248   0.47079   0.49994   1.000
    O43     O    0.06242   0.47085   0.50006   1.000
    O44     O    0.81245   0.97079   0.00001   1.000
    O45     O    0.31245   0.97082   0.99999   1.000
    O46     O    0.93753   0.52924   0.50007   1.000
    O47     O    0.43758   0.52918   0.49995   1.000
    N48     N    0.62509   0.74995   0.24997   1.000
    O49     O    0.57283   0.85197   0.14573   1.000
    O50     O    0.57253   0.64689   0.35335   1.000
    O51     O    0.67766   0.85300   0.14665   1.000
    O52     O    0.67728   0.64791   0.35425   1.000
    N53     N    0.12926   0.74999   0.24998   1.000
    O54     O    0.07495   0.85201   0.14576   1.000
    O55     O    0.07449   0.64696   0.35341   1.000
    O56     O    0.17979   0.85300   0.14664   1.000
    O57     O    0.17927   0.64794   0.35427   1.000
    N58     N    0.87501   0.24994   0.25005   1.000
    O59     O    0.92713   0.35203   0.35426   1.000
    O60     O    0.92767   0.14699   0.14661   1.000
    O61     O    0.82229   0.35289   0.35340   1.000
    O62     O    0.82290   0.14784   0.14579   1.000
    N63     N    0.37492   0.25005   0.25001   1.000
    O64     O    0.32287   0.14791   0.14575   1.000
    O65     O    0.42704   0.35212   0.35419   1.000
    O66     O    0.42766   0.14707   0.14657   1.000
    O67     O    0.32219   0.35294   0.35339   1.000
    N68     N    0.62503   0.75009   0.74996   1.000
    O69     O    0.67773   0.64715   0.64660   1.000
    O70     O    0.67714   0.85218   0.85423   1.000
    O71     O    0.57290   0.64801   0.64575   1.000
    O72     O    0.57236   0.85303   0.85340   1.000
    N73     N    0.12934   0.75000   0.75000   1.000
    O74     O    0.07446   0.85297   0.85343   1.000
    O75     O    0.17994   0.64709   0.64662   1.000
    O76     O    0.17924   0.85212   0.85424   1.000
    O77     O    0.07509   0.64792   0.64582   1.000
    N78     N    0.37504   0.25003   0.75002   1.000
    O79     O    0.42721   0.14801   0.85425   1.000
    O80     O    0.42767   0.35307   0.64660   1.000
    O81     O    0.32237   0.14700   0.85335   1.000
    O82     O    0.32288   0.35208   0.64574   1.000
    N83     N    0.87488   0.25008   0.75003   1.000
    O84     O    0.92714   0.14805   0.85427   1.000
    O85     O    0.92745   0.35314   0.64665   1.000
    O86     O    0.82231   0.14704   0.85336   1.000
    O87     O    0.82271   0.35212   0.64574   1.000
loop_
    _geom_bond_atom_site_label_1
    _geom_bond_atom_site_label_2
    _geom_bond_distance
    _geom_bond_site_symmetry_2
    _ccdc_geom_bond_type
    Zr20   O24       0.93067      .   S
    Zr0    O24       0.93067  1_545   S
    Zr20   O25       0.48480  1_554   S
    Zr12   O25       0.48480      .   S
    Zr21   O26       0.48486  1_554   S
    Zr13   O26       0.48486      .   S
    Zr21   O27       0.93052  1_554   S
    Zr1    O27       0.93052  1_545   S
    Zr0    O28       0.93072  1_654   S
    Zr17   O28       0.93072      .   S
    Zr9    O29       0.48491      .   S
    Zr17   O29       0.48491  1_556   S
    Zr8    O30       0.48495      .   S
    Zr16   O30       0.48495  1_556   S
    Zr14   O31       0.48497      .   S
    Zr22   O31       0.48497      .   S
    Zr15   O32       0.48485      .   S
    Zr23   O32       0.48485      .   S
    Zr18   O33       0.93077      .   S
    Zr2    O33       0.93077      .   S
    Zr18   O34       0.48498      .   S
    Zr10   O34       0.48498      .   S
    Zr23   O35       0.93056      .   S
    Zr3    O35       0.93056      .   S
    Zr2    O36       0.93075      .   S
    Zr22   O36       0.93075      .   S
    Zr3    O37       0.93056      .   S
    Zr19   O37       0.93056      .   S
    Zr19   O38       0.48486      .   S
    Zr11   O38       0.48486      .   S
    Zr16   O39       0.93078      .   S
    Zr1    O39       0.93078      .   S
    Zr16   O40       0.93097      .   S
    Zr4    O40       0.93097  1_554   S
    Zr17   O41       0.93089      .   S
    Zr5    O41       0.93089  1_565   S
    Zr18   O42       0.93080      .   S
    Zr7    O42       0.93080      .   S
    Zr19   O43       0.93066      .   S
    Zr6    O43       0.93066  1_655   S
    Zr20   O44       0.93098      .   S
    Zr4    O44       0.93098  1_545   S
    Zr21   O45       0.93079  1_554   S
    Zr5    O45       0.93079      .   S
    Zr22   O46       0.93078      .   S
    Zr6    O46       0.93078      .   S
    Zr23   O47       0.93070      .   S
    Zr7    O47       0.93070      .   S
    N48    O49       2.30964      .   S
    Zr1    O49       3.27463  1_546   S
    N48    O50       2.30902      .   S
    Zr7    O50       3.27211      .   S
    N48    O51       2.30821      .   S
    Zr4    O51       3.27329  1_545   S
    N48    O52       2.31011      .   S
    Zr2    O52       3.27288      .   S
    N53    O54       2.31804      .   S
    Zr0    O54       3.28278  1_645   S
    N53    O55       2.31850      .   S
    Zr6    O55       3.28181  1_655   S
    N53    O56       2.29995      .   S
    Zr5    O56       3.26508  1_556   S
    N53    O57       2.30155      .   S
    Zr3    O57       3.26524      .   S
    N58    O59       2.30777      .   S
    Zr6    O59       3.27253      .   S
    N58    O60       2.31082      .   S
    Zr0    O60       3.27470      .   S
    N58    O61       2.30993      .   S
    Zr2    O61       3.27581      .   S
    N58    O62       2.30837      .   S
    Zr4    O62       3.27125      .   S
    N63    O64       2.30841      .   S
    Zr5    O64       3.27166  1_566   S
    N63    O65       2.30734      .   S
    Zr7    O65       3.27180      .   S
    N63    O66       2.31123      .   S
    Zr1    O66       3.27551  1_556   S
    N63    O67       2.31001      .   S
    Zr3    O67       3.27511      .   S
    N68    O69       2.30992      .   S
    Zr2    O69       3.27584      .   S
    N68    O70       2.30833      .   S
    Zr4    O70       3.27103  1_544   S
    N68    O71       2.30783      .   S
    Zr7    O71       3.27268      .   S
    N68    O72       2.31071      .   S
    Zr1    O72       3.27451  1_545   S
    N73    O74       2.32015      .   S
    Zr0    O74       3.28373  1_644   S
    N73    O75       2.30134      .   S
    Zr3    O75       3.26674      .   S
    N73    O76       2.29968      .   S
    Zr5    O76       3.26265      .   S
    N73    O77       2.31615      .   S
    Zr6    O77       3.28041  1_655   S
    N78    O79       2.30920      .   S
    Zr1    O79       3.27401      .   S
    N78    O80       2.30963      .   S
    Zr7    O80       3.27325      .   S
    N78    O81       2.30851      .   S
    Zr5    O81       3.27343  1_565   S
    N78    O82       2.31008      .   S
    Zr3    O82       3.27373      .   S
    N83    O84       2.30967      .   S
    Zr0    O84       3.27485  1_554   S
    N83    O85       2.30906      .   S
    Zr6    O85       3.27223      .   S
    N83    O86       2.30829      .   S
    Zr4    O86       3.27349  1_554   S
    N83    O87       2.31014      .   S
    Zr2    O87       3.27296      .   S
