# CIF file generated by openbabel 2.4.90, see http://openbabel.sf.net
data_I
_chemical_name_common 'ZnH8C15S2NO4'
_cell_length_a 13.958
_cell_length_b 14.283
_cell_length_c 14.292
_cell_angle_alpha 95.047
_cell_angle_beta 106.523
_cell_angle_gamma 107.078
_space_group_name_H-M_alt 'P 1'
_space_group_name_Hall 'P 1'
loop_
    _symmetry_equiv_pos_as_xyz
    x,y,z
loop_
    _atom_site_label
    _atom_site_type_symbol
    _atom_site_fract_x
    _atom_site_fract_y
    _atom_site_fract_z
    _atom_site_occupancy
    Zn0     Zn   0.14067   0.12723   0.83923   1.000
    Zn1     Zn   0.36074   0.16198   0.87235   1.000
    Zn2     Zn   0.85933   0.87276   0.16077   1.000
    Zn3     Zn   0.63926   0.83802   0.12765   1.000
    H4      H    0.45277   0.68841   0.91012   1.000
    H5      H    0.48394   0.51612   0.91473   1.000
    H6      H    0.03418   0.77697   0.84003   1.000
    H7      H    0.07288   0.60831   0.85817   1.000
    H8      H    0.78396   0.18640   0.71007   1.000
    H9      H    0.95548   0.16970   0.70287   1.000
    H10     H    0.01521   0.07762   0.97373   1.000
    H11     H    0.84532   0.08484   0.99089   1.000
    H12     H    0.04898   0.09026   0.31434   1.000
    H13     H    0.01837   0.08593   0.48706   1.000
    H14     H    0.46642   0.16137   0.22080   1.000
    H15     H    0.42869   0.14450   0.39025   1.000
    H16     H    0.71910   0.29016   0.81254   1.000
    H17     H    0.54756   0.29793   0.82888   1.000
    H18     H    0.48420   0.02727   0.92288   1.000
    H19     H    0.65399   0.00959   0.91608   1.000
    H20     H    0.54723   0.31158   0.08987   1.000
    H21     H    0.51606   0.48387   0.08526   1.000
    H22     H    0.96582   0.22302   0.15997   1.000
    H23     H    0.92713   0.39169   0.14183   1.000
    H24     H    0.21605   0.81361   0.28993   1.000
    H25     H    0.04452   0.83030   0.29713   1.000
    H26     H    0.00000   0.92236   0.02626   1.000
    H27     H    0.15468   0.91515   0.00910   1.000
    H28     H    0.95102   0.90973   0.68566   1.000
    H29     H    0.98163   0.91406   0.51293   1.000
    H30     H    0.53358   0.83862   0.77919   1.000
    H31     H    0.57131   0.85549   0.60975   1.000
    H32     H    0.28090   0.70984   0.18746   1.000
    H33     H    0.45244   0.70206   0.17112   1.000
    H34     H    0.51580   0.97271   0.07710   1.000
    H35     H    0.34600   0.99040   0.08391   1.000
    C36     C    0.20826   0.94979   0.84224   1.000
    C37     C    0.29794   0.33778   0.87194   1.000
    C38     C    0.31369   0.44501   0.87580   1.000
    C39     C    0.28221   0.60772   0.86957   1.000
    C40     C    0.19635   0.84391   0.84278   1.000
    C41     C    0.38907   0.61719   0.89360   1.000
    C42     C    0.40638   0.52492   0.89679   1.000
    C43     C    0.23387   0.68442   0.85938   1.000
    C44     C    0.10946   0.76682   0.84429   1.000
    C45     C    0.13042   0.67691   0.85385   1.000
    C46     C    0.83298   0.16231   0.77051   1.000
    C47     C    0.92781   0.15299   0.76552   1.000
    C48     C    0.96032   0.09946   0.91642   1.000
    C49     C    0.86570   0.10469   0.92560   1.000
    C50     C    0.80042   0.13842   0.85232   1.000
    C51     C    0.29155   0.15673   0.04963   1.000
    C52     C    0.20462   0.12978   0.66341   1.000
    C53     C    0.18861   0.12568   0.55630   1.000
    C54     C    0.21954   0.13162   0.39314   1.000
    C55     C    0.30409   0.15703   0.15552   1.000
    C56     C    0.11280   0.10714   0.38487   1.000
    C57     C    0.09580   0.10411   0.47739   1.000
    C58     C    0.26750   0.14163   0.31579   1.000
    C59     C    0.39129   0.15673   0.23179   1.000
    C60     C    0.37085   0.14784   0.32214   1.000
    C61     C    0.66926   0.22987   0.83701   1.000
    C62     C    0.57443   0.23519   0.84612   1.000
    C63     C    0.53990   0.08443   0.90073   1.000
    C64     C    0.63444   0.07494   0.89573   1.000
    C65     C    0.70078   0.14798   0.86159   1.000
    C66     C    0.79174   0.05020   0.15775   1.000
    C67     C    0.70205   0.66221   0.12806   1.000
    C68     C    0.68630   0.55498   0.12419   1.000
    C69     C    0.71779   0.39227   0.13042   1.000
    C70     C    0.80365   0.15608   0.15722   1.000
    C71     C    0.61093   0.38280   0.10639   1.000
    C72     C    0.59362   0.47507   0.10320   1.000
    C73     C    0.76613   0.31558   0.14061   1.000
    C74     C    0.89055   0.23318   0.15571   1.000
    C75     C    0.86958   0.32308   0.14614   1.000
    C76     C    0.16702   0.83769   0.22948   1.000
    C77     C    0.07219   0.84700   0.23448   1.000
    C78     C    0.03968   0.90052   0.08357   1.000
    C79     C    0.13430   0.89530   0.07440   1.000
    C80     C    0.19959   0.86158   0.14767   1.000
    C81     C    0.70845   0.84326   0.95037   1.000
    C82     C    0.79538   0.87021   0.33659   1.000
    C83     C    0.81139   0.87432   0.44370   1.000
    C84     C    0.78046   0.86838   0.60686   1.000
    C85     C    0.69591   0.84296   0.84448   1.000
    C86     C    0.88720   0.89286   0.61512   1.000
    C87     C    0.90420   0.89589   0.52261   1.000
    C88     C    0.73250   0.85836   0.68421   1.000
    C89     C    0.60871   0.84326   0.76821   1.000
    C90     C    0.62916   0.85215   0.67786   1.000
    C91     C    0.33074   0.77012   0.16300   1.000
    C92     C    0.42557   0.76480   0.15388   1.000
    C93     C    0.46010   0.91556   0.09926   1.000
    C94     C    0.36556   0.92505   0.10426   1.000
    C95     C    0.29923   0.85201   0.13841   1.000
    S96     S    0.30412   0.80422   0.85124   1.000
    S97     S    0.20392   0.48356   0.85086   1.000
    S98     S    0.19669   0.14825   0.19650   1.000
    S99     S    0.29811   0.15103   0.51648   1.000
    S100    S    0.69588   0.19577   0.14875   1.000
    S101    S    0.79608   0.51643   0.14913   1.000
    S102    S    0.80331   0.85174   0.80349   1.000
    S103    S    0.70188   0.84897   0.48352   1.000
    N104    N    0.99149   0.12319   0.83802   1.000
    N105    N    0.50976   0.16291   0.87636   1.000
    N106    N    0.00852   0.87681   0.16198   1.000
    N107    N    0.49024   0.83707   0.12362   1.000
    O108    O    0.12797   0.97657   0.83917   1.000
    O109    O    0.38035   0.31149   0.89324   1.000
    O110    O    0.30016   0.00698   0.84782   1.000
    O111    O    0.20196   0.28014   0.84750   1.000
    O112    O    0.37166   0.16056   0.02182   1.000
    O113    O    0.12224   0.10720   0.69044   1.000
    O114    O    0.19935   0.14968   0.99346   1.000
    O115    O    0.30065   0.15569   0.72019   1.000
    O116    O    0.87202   0.02342   0.16082   1.000
    O117    O    0.61965   0.68851   0.10676   1.000
    O118    O    0.69984   0.99301   0.15217   1.000
    O119    O    0.79804   0.71985   0.15250   1.000
    O120    O    0.62833   0.83942   0.97817   1.000
    O121    O    0.87776   0.89279   0.30955   1.000
    O122    O    0.80065   0.85031   0.00653   1.000
    O123    O    0.69934   0.84431   0.27981   1.000
loop_
    _geom_bond_atom_site_label_1
    _geom_bond_atom_site_label_2
    _geom_bond_distance
    _geom_bond_site_symmetry_2
    _ccdc_geom_bond_type
    O122   Zn2       2.08026      .   S
    O122   C81       1.27782  1_554   S
    H27    C79       1.08733      .   S
    O112   C51       1.27743      .   S
    O112   Zn1       2.10043  1_554   S
    H26    C78       0.98148      .   S
    C51    C55       1.47267      .   S
    C51    O114      1.27783  1_554   S
    C79    C78       1.38633      .   S
    C79    C80       1.40099      .   S
    H34    C93       1.08798      .   S
    C78    N106      1.34804      .   S
    H35    C94       1.08744      .   S
    H21    C72       1.08685      .   S
    H20    C71       1.08997      .   S
    C93    C94       1.38635      .   S
    C93    N107      1.34809      .   S
    C72    C71       1.41023      .   S
    C72    C68       1.38491      .   S
    C94    C95       1.40103      .   S
    C71    C69       1.39377      .   S
    O117   Zn3       2.05486      .   S
    O117   C67       1.27722      .   S
    N107   Zn3       2.06045      .   S
    N107   C92       1.34928      .   S
    C68    C67       1.47567      .   S
    C68    S101      1.73130      .   S
    Zn3    O118      2.08187      .   S
    Zn3    O123      2.07954      .   S
    Zn3    O120      2.10044  1_554   S
    C67    O119      1.27676      .   S
    C69    C73       1.44320      .   S
    C69    S101      1.73861      .   S
    C95    C80       1.47770      .   S
    C95    C91       1.40416      .   S
    C73    C75       1.39485      .   S
    C73    S100      1.73711      .   S
    H23    C75       1.08886      .   S
    C75    C74       1.40785      .   S
    C80    C76       1.40414      .   S
    S100   C70       1.73439      .   S
    O118   C66       1.27821  1_565   S
    O119   Zn2       2.07725      .   S
    C92    C91       1.38936      .   S
    C92    H33       1.08992      .   S
    C55    S98       1.73431      .   S
    C55    C59       1.38523      .   S
    C74    C70       1.38519      .   S
    C74    H22       1.08785      .   S
    C70    C66       1.47301      .   S
    C66    O116      1.27699      .   S
    Zn2    O116      2.10669  1_565   S
    Zn2    N106      2.06114  1_655   S
    Zn2    O121      2.05142      .   S
    N106   C77       1.34929      .   S
    C91    H32       1.08953      .   S
    S98    C58       1.73699      .   S
    H14    C59       1.08783      .   S
    C76    C77       1.38939      .   S
    C76    H24       1.08953      .   S
    C59    C60       1.40783      .   S
    C77    H25       1.08994      .   S
    O123   C82       1.27646      .   S
    O121   C82       1.27760      .   S
    H12    C56       1.09001      .   S
    C58    C60       1.39492      .   S
    C58    C54       1.44325      .   S
    C60    H15       1.08885      .   S
    C82    C83       1.47605      .   S
    C56    C54       1.39387      .   S
    C56    C57       1.41024      .   S
    C54    S99       1.73864      .   S
    C83    S103      1.73126      .   S
    C83    C87       1.38504      .   S
    C57    H13       1.08684      .   S
    C57    C53       1.38504      .   S
    S103   C84       1.73865      .   S
    H29    C87       1.08685      .   S
    S99    C53       1.73126      .   S
    C87    C86       1.41023      .   S
    C53    C52       1.47606      .   S
    C84    C86       1.39388      .   S
    C84    C88       1.44325      .   S
    H31    C90       1.08885      .   S
    C86    H28       1.09001      .   S
    C52    O113      1.27759      .   S
    C52    O115      1.27646      .   S
    C90    C88       1.39491      .   S
    C90    C89       1.40784      .   S
    C88    S102      1.73700      .   S
    O113   Zn0       2.05144      .   S
    H9     C47       1.08993      .   S
    H8     C46       1.08952      .   S
    O115   Zn1       2.07953      .   S
    C47    C46       1.38939      .   S
    C47    N104      1.34930      .   S
    C89    H30       1.08783      .   S
    C89    C85       1.38523      .   S
    C46    C50       1.40413      .   S
    S102   C85       1.73430      .   S
    H16    C61       1.08953      .   S
    H17    C62       1.08992      .   S
    C61    C62       1.38937      .   S
    C61    C65       1.40415      .   S
    N104   Zn0       2.06112  1_655   S
    N104   C48       1.34805      .   S
    O108   Zn0       2.10666  1_565   S
    O108   C36       1.27701      .   S
    Zn0    O111      2.07726      .   S
    Zn0    O114      2.08024      .   S
    H6     C44       1.08785      .   S
    C36    C40       1.47302      .   S
    C36    O110      1.27821  1_565   S
    C40    C44       1.38520      .   S
    C40    S96       1.73439      .   S
    C44    C45       1.40785      .   S
    C85    C81       1.47267      .   S
    C62    N105      1.34927      .   S
    O111   C37       1.27676      .   S
    O110   Zn1       2.08190      .   S
    S97    C39       1.73862      .   S
    S97    C38       1.73129      .   S
    S96    C43       1.73710      .   S
    C50    C65       1.47770      .   S
    C50    C49       1.40099      .   S
    C45    H7        1.08886      .   S
    C45    C43       1.39484      .   S
    C43    C39       1.44320      .   S
    C65    C64       1.40105      .   S
    C39    C41       1.39376      .   S
    C37    C38       1.47568      .   S
    C37    O109      1.27724      .   S
    Zn1    N105      2.06046      .   S
    Zn1    O109      2.05482      .   S
    C38    C42       1.38491      .   S
    N105   C63       1.34810      .   S
    C41    C42       1.41024      .   S
    C41    H4        1.08996      .   S
    C64    C63       1.38635      .   S
    C64    H19       1.08743      .   S
    C42    H5        1.08684      .   S
    C63    H18       1.08797      .   S
    C48    C49       1.38631      .   S
    C48    H10       1.08796  1_655   S
    C49    H11       1.08734      .   S
    C81    O120      1.27743      .   S
    Zn0    Zn1       2.85348      .   S
    Zn2    Zn3       2.85347      .   S
