# CIF file generated by openbabel 2.4.90, see http://openbabel.sf.net
data_I
_chemical_name_common ''
_cell_length_a 13.423
_cell_length_b 13.464
_cell_length_c 16.481
_cell_angle_alpha 89.995
_cell_angle_beta 90.02
_cell_angle_gamma 89.893
_space_group_name_H-M_alt 'P 1'
_space_group_name_Hall 'P 1'
loop_
    _symmetry_equiv_pos_as_xyz
    x,y,z
loop_
    _atom_site_label
    _atom_site_type_symbol
    _atom_site_fract_x
    _atom_site_fract_y
    _atom_site_fract_z
    _atom_site_occupancy
    H0      H    0.12482   0.63002   0.48623   1.000
    H1      H    0.62483   0.63039   0.48772   1.000
    H2      H    0.37521   0.36961   0.51227   1.000
    H3      H    0.87522   0.36997   0.51375   1.000
    O4      O    0.12491   0.56000   0.50005   1.000
    O5      O    0.62493   0.55994   0.49998   1.000
    O6      O    0.37511   0.44005   0.50000   1.000
    O7      O    0.87513   0.43999   0.49993   1.000
loop_
    _geom_bond_atom_site_label_1
    _geom_bond_atom_site_label_2
    _geom_bond_distance
    _geom_bond_site_symmetry_2
    _ccdc_geom_bond_type
    H0     O4        0.96984      .   S
    H1     O5        0.96975      .   S
    O7     H3        0.96984      .   S
    O6     H2        0.96977      .   S
