# CIF file generated by openbabel 2.4.90, see http://openbabel.sf.net
data_I
_chemical_name_common ''
_cell_length_a 13.423
_cell_length_b 13.464
_cell_length_c 16.481
_cell_angle_alpha 89.995
_cell_angle_beta 90.02
_cell_angle_gamma 89.893
_space_group_name_H-M_alt 'P 1'
_space_group_name_Hall 'P 1'
loop_
    _symmetry_equiv_pos_as_xyz
    x,y,z
loop_
    _atom_site_label
    _atom_site_type_symbol
    _atom_site_fract_x
    _atom_site_fract_y
    _atom_site_fract_z
    _atom_site_occupancy
    Al0     Al   0.50001   0.00000   0.00000   1.000
    Al1     Al   0.25000   0.50000   0.50002   1.000
    Al2     Al   0.75004   0.50000   0.49990   1.000
    Al3     Al   0.25001   1.00000   0.99998   1.000
    Al4     Al   0.00000   0.50000   0.49999   1.000
    Al5     Al   0.50002   0.50000   0.49999   1.000
    H6      H    0.12520   0.86972   0.98723   1.000
    H7      H    0.62521   0.86987   0.98664   1.000
    H8      H    0.37483   0.13013   0.01334   1.000
    H9      H    0.87484   0.13028   0.01275   1.000
    Al10    Al   0.00000   0.00000   0.00000   1.000
    O11     O    0.12512   0.94003   0.00000   1.000
    O12     O    0.62513   0.94001   0.00000   1.000
    O13     O    0.37491   0.05999   0.99995   1.000
    O14     O    0.87492   0.05997   0.99998   1.000
loop_
    _geom_bond_atom_site_label_1
    _geom_bond_atom_site_label_2
    _geom_bond_distance
    _geom_bond_site_symmetry_2
    _ccdc_geom_bond_type
    Al0    O12       1.86221  1_545   S
    Al0    O13       1.86201  1_554   S
    Al10   O14       1.86163  1_454   S
    O11    H6        0.96978  1_554   S
    O11    Al3       1.86210  1_554   S
    O12    H7        0.96970  1_554   S
    H9     O14       0.96978  1_554   S
    H8     O13       0.96980  1_554   S
    O11    Al10      1.86212  1_565   S
    O13    Al3       1.86231  1_545   S
