# CIF file generated by openbabel 2.4.90, see http://openbabel.sf.net
data_I
_chemical_name_common ''
_cell_length_a 13.423
_cell_length_b 13.464
_cell_length_c 16.481
_cell_angle_alpha 89.995
_cell_angle_beta 90.02
_cell_angle_gamma 89.893
_space_group_name_H-M_alt 'P 1'
_space_group_name_Hall 'P 1'
loop_
    _symmetry_equiv_pos_as_xyz
    x,y,z
loop_
    _atom_site_label
    _atom_site_type_symbol
    _atom_site_fract_x
    _atom_site_fract_y
    _atom_site_fract_z
    _atom_site_occupancy
    Zr0     Zr   0.25000   0.50000   0.50002   1.000
    Zr1     Zr   0.75004   0.50000   0.49990   1.000
    Zr2     Zr   0.00000   0.50000   0.49999   1.000
    Zr3     Zr   0.50002   0.50000   0.49999   1.000
    N4      N    0.62513   0.24975   0.74981   1.000
    O5      O    0.57279   0.35189   0.64570   1.000
    O6      O    0.67756   0.35186   0.64568   1.000
    N7      N    0.12500   0.25023   0.24982   1.000
    O8      O    0.17747   0.35205   0.35405   1.000
    O9      O    0.07264   0.35209   0.35405   1.000
    N10     N    0.62491   0.25025   0.24982   1.000
    O11     O    0.67740   0.35208   0.35401   1.000
    O12     O    0.57257   0.35210   0.35406   1.000
    N13     N    0.37491   0.75025   0.25016   1.000
    O14     O    0.42725   0.64811   0.35428   1.000
    O15     O    0.32248   0.64814   0.35426   1.000
    N16     N    0.87502   0.75025   0.25016   1.000
    O17     O    0.92734   0.64810   0.35428   1.000
    O18     O    0.82258   0.64812   0.35423   1.000
    N19     N    0.37513   0.74974   0.75016   1.000
    O20     O    0.32264   0.64792   0.64595   1.000
    O21     O    0.42747   0.64790   0.64592   1.000
    N22     N    0.87504   0.74976   0.75015   1.000
    O23     O    0.82257   0.64795   0.64591   1.000
    O24     O    0.92739   0.64791   0.64592   1.000
    N25     N    0.12502   0.24975   0.74982   1.000
    O26     O    0.07269   0.35189   0.64571   1.000
    O27     O    0.17745   0.35188   0.64574   1.000
    Zr28    Zr   0.25002   1.00000   0.99999   1.000
    O29     O    0.33872   0.92603   0.07297   1.000
    O30     O    0.33877   0.92593   0.92712   1.000
    O31     O    0.41127   0.07406   0.07286   1.000
    O32     O    0.41131   0.07397   0.92701   1.000
    O33     O    0.08874   0.92594   0.92712   1.000
    O34     O    0.08875   0.92603   0.07297   1.000
    O35     O    0.16128   0.07397   0.92701   1.000
    O36     O    0.16129   0.07406   0.07286   1.000
    O37     O    0.28631   0.92604   0.07295   1.000
    O38     O    0.28638   0.92594   0.92712   1.000
    O39     O    0.21369   0.07395   0.92702   1.000
    O40     O    0.21368   0.07405   0.07285   1.000
    C41     C    0.37516   0.40483   0.50614   1.000
    O42     O    0.34386   0.43743   0.50307   1.000
    O43     O    0.40636   0.43743   0.50306   1.000
    C44     C    0.87518   0.40498   0.50684   1.000
    O45     O    0.84388   0.43749   0.50338   1.000
    O46     O    0.90637   0.43749   0.50340   1.000
    C47     C    0.12486   0.59501   0.49314   1.000
    O48     O    0.15616   0.56251   0.49659   1.000
    O49     O    0.09366   0.56251   0.49658   1.000
    C50     C    0.62488   0.59517   0.49385   1.000
    O51     O    0.65618   0.56257   0.49689   1.000
    O52     O    0.59368   0.56257   0.49692   1.000
    Zr53    Zr   0.75001   0.00000   0.40000   1.000
loop_
    _geom_bond_atom_site_label_1
    _geom_bond_atom_site_label_2
    _geom_bond_distance
    _geom_bond_site_symmetry_2
    _ccdc_geom_bond_type
    N4     O5        2.30740      .   S
    Zr3    O5        3.26921      .   S
    N4     O6        2.30970      .   S
    Zr1    O6        3.27188      .   S
    N7     O8        2.30855      .   S
    Zr0    O8        3.27255      .   S
    N7     O9        2.30719      .   S
    Zr2    O9        3.27059      .   S
    N10    O11       2.30822      .   S
    Zr1    O11       3.27171      .   S
    N10    O12       2.30706      .   S
    Zr3    O12       3.27013      .   S
    N13    O14       2.30747      .   S
    Zr3    O14       3.26928      .   S
    N13    O15       2.30936      .   S
    Zr0    O15       3.27161      .   S
    N16    O17       2.30741      .   S
    Zr2    O17       3.26882  1_455   S
    N16    O18       2.30904      .   S
    Zr1    O18       3.27074      .   S
    N19    O20       2.30841      .   S
    Zr0    O20       3.27226      .   S
    N19    O21       2.30706      .   S
    Zr3    O21       3.27014      .   S
    N22    O23       2.30869      .   S
    Zr1    O23       3.27305      .   S
    N22    O24       2.30711      .   S
    Zr2    O24       3.27043  1_455   S
    N25    O26       2.30740      .   S
    Zr2    O26       3.26896      .   S
    N25    O27       2.30919      .   S
    Zr0    O27       3.27130      .   S
    Zr28   O29       1.96233  1_556   S
    N13    O29       3.78931      .   S
    Zr28   O30       1.96281      .   S
    N19    O30       3.79074      .   S
    Zr28   O31       2.66986  1_566   S
    N10    O31       4.73061      .   S
    Zr28   O32       2.67125  1_565   S
    N4     O32       4.73259      .   S
    Zr28   O33       2.67012      .   S
    N22    O33       4.73100  1_655   S
    Zr28   O34       2.67091  1_556   S
    N16    O34       4.73192  1_655   S
    Zr28   O35       1.96255  1_565   S
    N25    O35       3.78948      .   S
    Zr28   O36       1.96259  1_566   S
    N7     O36       3.79051      .   S
    Zr28   O37       1.63474  1_556   S
    N13    O37       3.94112      .   S
    Zr28   O38       1.63505      .   S
    N19    O38       3.94292      .   S
    Zr28   O39       1.63488  1_565   S
    N25    O39       3.94136      .   S
    Zr28   O40       1.63487  1_566   S
    N7     O40       3.94260      .   S
    C41    O42       0.60910      .   S
    Zr0    O42       1.51506      .   S
    C41    O43       0.60935      .   S
    Zr3    O43       1.51548      .   S
    C44    O45       0.60875      .   S
    Zr1    O45       1.51470      .   S
    C44    O46       0.60893      .   S
    Zr2    O46       1.51493  1_455   S
    C47    O48       0.60872      .   S
    Zr0    O48       1.51467      .   S
    C47    O49       0.60902      .   S
    Zr2    O49       1.51526      .   S
    C50    O51       0.60908      .   S
    Zr1    O51       1.51503      .   S
    C50    O52       0.60935      .   S
    Zr3    O52       1.51549      .   S
