# CIF file generated by openbabel 2.4.90, see http://openbabel.sf.net
data_I
_chemical_name_common ''
_cell_length_a 13.423
_cell_length_b 13.464
_cell_length_c 16.481
_cell_angle_alpha 89.995
_cell_angle_beta 90.02
_cell_angle_gamma 89.893
_space_group_name_H-M_alt 'P 1'
_space_group_name_Hall 'P 1'
loop_
    _symmetry_equiv_pos_as_xyz
    x,y,z
loop_
    _atom_site_label
    _atom_site_type_symbol
    _atom_site_fract_x
    _atom_site_fract_y
    _atom_site_fract_z
    _atom_site_occupancy
    Zr0     Zr   0.00000   0.00000   0.00000   1.000
    Zr1     Zr   0.50001   0.00000   0.00000   1.000
    Zr2     Zr   0.25000   0.50000   0.50002   1.000
    Zr3     Zr   0.75004   0.50000   0.49990   1.000
    Zr4     Zr   0.25001   1.00000   0.99998   1.000
    Zr5     Zr   0.75001   0.00000   0.40000   1.000
    Zr6     Zr   0.00000   0.50000   0.49999   1.000
    Zr7     Zr   0.50002   0.50000   0.49999   1.000
    Zr8     Zr   0.12520   0.86972   0.98723   1.000
    Zr9     Zr   0.62521   0.86987   0.98664   1.000
    Zr10    Zr   0.12482   0.63002   0.48623   1.000
    Zr11    Zr   0.62483   0.63039   0.48772   1.000
    Zr12    Zr   0.37483   0.13013   0.01334   1.000
    Zr13    Zr   0.87484   0.13028   0.01275   1.000
    Zr14    Zr   0.37521   0.36961   0.51227   1.000
    Zr15    Zr   0.87522   0.36997   0.51375   1.000
    Zr16    Zr   0.12512   0.94003   0.00000   1.000
    Zr17    Zr   0.62513   0.94001   0.00000   1.000
    Zr18    Zr   0.12491   0.56000   0.50005   1.000
    Zr19    Zr   0.62493   0.55994   0.49998   1.000
    Zr20    Zr   0.37491   0.05999   0.99995   1.000
    Zr21    Zr   0.87492   0.05997   0.99998   1.000
    Zr22    Zr   0.37511   0.44005   0.50000   1.000
    Zr23    Zr   0.87513   0.43999   0.49993   1.000
    O24     O    0.56257   0.97000   0.00000   1.000
    O25     O    0.43746   0.02999   0.99997   1.000
    O26     O    0.93746   0.02998   0.99999   1.000
    O27     O    0.12516   0.90487   0.99361   1.000
    O28     O    0.18756   0.97001   0.99999   1.000
    O29     O    0.62517   0.90494   0.99332   1.000
    O30     O    0.87488   0.09512   0.00637   1.000
    O31     O    0.37487   0.09506   0.00664   1.000
    O32     O    0.12486   0.59501   0.49314   1.000
    O33     O    0.62488   0.59517   0.49385   1.000
    O34     O    0.81258   0.46999   0.49992   1.000
    O35     O    0.68748   0.52997   0.49994   1.000
    O36     O    0.87518   0.40498   0.50684   1.000
    O37     O    0.31256   0.47003   0.50001   1.000
    O38     O    0.37516   0.40483   0.50614   1.000
    O39     O    0.18746   0.53000   0.50004   1.000
    O40     O    0.06256   0.97001   0.00000   1.000
    O41     O    0.06245   0.53000   0.50002   1.000
    O42     O    0.56247   0.52997   0.49999   1.000
    O43     O    0.31246   0.02999   0.99996   1.000
    O44     O    0.43757   0.47003   0.50000   1.000
    O45     O    0.93757   0.47000   0.49996   1.000
    N46     N    0.62513   0.24975   0.74981   1.000
    O47     O    0.57261   0.14793   0.85403   1.000
    O48     O    0.57279   0.35189   0.64570   1.000
    O49     O    0.67756   0.35186   0.64568   1.000
    N50     N    0.12500   0.25023   0.24982   1.000
    O51     O    0.07257   0.14812   0.14573   1.000
    O52     O    0.17747   0.35205   0.35405   1.000
    O53     O    0.17734   0.14811   0.14571   1.000
    O54     O    0.07264   0.35209   0.35405   1.000
    N55     N    0.62491   0.25025   0.24982   1.000
    O56     O    0.57252   0.14813   0.14573   1.000
    O57     O    0.67740   0.35208   0.35401   1.000
    O58     O    0.57257   0.35210   0.35406   1.000
    N59     N    0.37491   0.75025   0.25016   1.000
    O60     O    0.42743   0.85206   0.14595   1.000
    O61     O    0.42725   0.64811   0.35428   1.000
    O62     O    0.32260   0.85209   0.14591   1.000
    O63     O    0.32248   0.64814   0.35426   1.000
    N64     N    0.87502   0.75025   0.25016   1.000
    O65     O    0.92749   0.85206   0.14595   1.000
    O66     O    0.92734   0.64810   0.35428   1.000
    O67     O    0.82258   0.64812   0.35423   1.000
    N68     N    0.37513   0.74974   0.75016   1.000
    O69     O    0.32264   0.64792   0.64595   1.000
    O70     O    0.32275   0.85189   0.85426   1.000
    O71     O    0.42747   0.64790   0.64592   1.000
    O72     O    0.42752   0.85187   0.85425   1.000
    N73     N    0.87504   0.74976   0.75015   1.000
    O74     O    0.82257   0.64795   0.64591   1.000
    O75     O    0.92739   0.64791   0.64592   1.000
    O76     O    0.92746   0.85188   0.85425   1.000
    N77     N    0.12502   0.24975   0.74982   1.000
    O78     O    0.07254   0.14793   0.85403   1.000
    O79     O    0.07269   0.35189   0.64571   1.000
    O80     O    0.17736   0.14790   0.85405   1.000
    O81     O    0.17745   0.35188   0.64574   1.000
loop_
    _geom_bond_atom_site_label_1
    _geom_bond_atom_site_label_2
    _geom_bond_distance
    _geom_bond_site_symmetry_2
    _ccdc_geom_bond_type
    Zr1    O24       0.93111  1_545   S
    Zr17   O24       0.93111      .   S
    Zr1    O25       0.93101  1_554   S
    Zr20   O25       0.93101      .   S
    Zr0    O26       0.93082  1_454   S
    Zr21   O26       0.93082      .   S
    Zr16   O27       0.48489  1_554   S
    Zr8    O27       0.48489      .   S
    Zr16   O28       0.93105  1_554   S
    Zr4    O28       0.93105      .   S
    Zr17   O29       0.48485  1_554   S
    Zr9    O29       0.48485      .   S
    Zr13   O30       0.48489      .   S
    Zr21   O30       0.48489  1_556   S
    Zr12   O31       0.48490      .   S
    Zr20   O31       0.48490  1_556   S
    Zr10   O32       0.48492      .   S
    Zr18   O32       0.48492      .   S
    Zr11   O33       0.48487      .   S
    Zr19   O33       0.48487      .   S
    Zr3    O34       0.93101      .   S
    Zr23   O34       0.93101      .   S
    Zr3    O35       0.93093      .   S
    Zr19   O35       0.93093      .   S
    Zr23   O36       0.48492      .   S
    Zr15   O36       0.48492      .   S
    Zr22   O37       0.93094      .   S
    Zr2    O37       0.93094      .   S
    Zr22   O38       0.48489      .   S
    Zr14   O38       0.48489      .   S
    Zr2    O39       0.93101      .   S
    Zr18   O39       0.93101      .   S
    Zr16   O40       0.93106      .   S
    Zr0    O40       0.93106  1_545   S
    Zr18   O41       0.93126      .   S
    Zr6    O41       0.93126      .   S
    Zr19   O42       0.93107      .   S
    Zr7    O42       0.93107      .   S
    Zr20   O43       0.93116      .   S
    Zr4    O43       0.93116  1_565   S
    Zr22   O44       0.93107      .   S
    Zr7    O44       0.93107      .   S
    Zr23   O45       0.93102      .   S
    Zr6    O45       0.93102  1_455   S
    N46    O47       2.30881      .   S
    Zr1    O47       3.27295  1_554   S
    N46    O48       2.30740      .   S
    Zr7    O48       3.26921      .   S
    N46    O49       2.30970      .   S
    Zr3    O49       3.27188      .   S
    N50    O51       2.30908      .   S
    Zr0    O51       3.27126      .   S
    N50    O52       2.30855      .   S
    Zr2    O52       3.27255      .   S
    N50    O53       2.30788      .   S
    Zr4    O53       3.26983  1_566   S
    N50    O54       2.30719      .   S
    Zr6    O54       3.27059      .   S
    N55    O56       2.30904      .   S
    Zr1    O56       3.27106      .   S
    N55    O57       2.30822      .   S
    Zr3    O57       3.27171      .   S
    N55    O58       2.30706      .   S
    Zr7    O58       3.27013      .   S
    N59    O60       2.30865      .   S
    Zr1    O60       3.27271  1_545   S
    N59    O61       2.30747      .   S
    Zr7    O61       3.26928      .   S
    N59    O62       2.30654      .   S
    Zr4    O62       3.26959  1_556   S
    N59    O63       2.30936      .   S
    Zr2    O63       3.27161      .   S
    N64    O65       2.30853      .   S
    Zr0    O65       3.27239  1_445   S
    N64    O66       2.30741      .   S
    Zr6    O66       3.26882  1_455   S
    N64    O67       2.30904      .   S
    Zr3    O67       3.27074      .   S
    N68    O69       2.30841      .   S
    Zr2    O69       3.27226      .   S
    N68    O70       2.30802      .   S
    Zr4    O70       3.27002      .   S
    N68    O71       2.30706      .   S
    Zr7    O71       3.27014      .   S
    N68    O72       2.30906      .   S
    Zr1    O72       3.27125  1_544   S
    N73    O74       2.30869      .   S
    Zr3    O74       3.27305      .   S
    N73    O75       2.30711      .   S
    Zr6    O75       3.27043  1_455   S
    N73    O76       2.30918      .   S
    Zr0    O76       3.27135  1_444   S
    N77    O78       2.30864      .   S
    Zr0    O78       3.27268  1_554   S
    N77    O79       2.30740      .   S
    Zr6    O79       3.26896      .   S
    N77    O80       2.30664      .   S
    Zr4    O80       3.26964  1_565   S
    N77    O81       2.30919      .   S
    Zr2    O81       3.27130      .   S
