# CIF file generated by openbabel 2.4.90, see http://openbabel.sf.net
data_I
_chemical_name_common ''
_cell_length_a 13.423
_cell_length_b 13.464
_cell_length_c 16.481
_cell_angle_alpha 89.995
_cell_angle_beta 90.02
_cell_angle_gamma 89.893
_space_group_name_H-M_alt 'P 1'
_space_group_name_Hall 'P 1'
loop_
    _symmetry_equiv_pos_as_xyz
    x,y,z
loop_
    _atom_site_label
    _atom_site_type_symbol
    _atom_site_fract_x
    _atom_site_fract_y
    _atom_site_fract_z
    _atom_site_occupancy
    C0      C    0.00000   0.00000   0.00000   1.000
    C1      C    0.50001   0.00000   0.00000   1.000
    C2      C    0.25000   0.50000   0.50002   1.000
    C3      C    0.75004   0.50000   0.49990   1.000
    C4      C    0.25001   1.00000   0.99998   1.000
    C5      C    0.75001   0.00000   0.40000   1.000
    C6      C    0.00000   0.50000   0.49999   1.000
    C7      C    0.50002   0.50000   0.49999   1.000
    C8      C    0.12520   0.86972   0.98723   1.000
    C9      C    0.62521   0.86987   0.98664   1.000
    C10     C    0.28501   0.30769   0.69053   1.000
    C11     C    0.78513   0.30767   0.69057   1.000
    C12     C    0.28455   0.19230   0.81070   1.000
    C13     C    0.78463   0.19230   0.81075   1.000
    C14     C    0.46556   0.30703   0.68900   1.000
    C15     C    0.96546   0.30701   0.68904   1.000
    C16     C    0.46522   0.19167   0.80921   1.000
    C17     C    0.96517   0.19162   0.80922   1.000
    C18     C    0.12482   0.63002   0.48623   1.000
    C19     C    0.62483   0.63039   0.48772   1.000
    C20     C    0.46499   0.19226   0.19040   1.000
    C21     C    0.96508   0.19220   0.19046   1.000
    C22     C    0.46533   0.30764   0.31056   1.000
    C23     C    0.96545   0.30754   0.31065   1.000
    C24     C    0.28462   0.19309   0.18910   1.000
    C25     C    0.78456   0.19306   0.18920   1.000
    C26     C    0.28483   0.30844   0.30932   1.000
    C27     C    0.78474   0.30842   0.30938   1.000
    C28     C    0.37483   0.13013   0.01334   1.000
    C29     C    0.87484   0.13028   0.01275   1.000
    C30     C    0.21491   0.69233   0.30941   1.000
    C31     C    0.71503   0.69231   0.30946   1.000
    C32     C    0.21541   0.80770   0.18923   1.000
    C33     C    0.71549   0.80769   0.18927   1.000
    C34     C    0.03458   0.69299   0.31094   1.000
    C35     C    0.53448   0.69297   0.31090   1.000
    C36     C    0.03487   0.80837   0.19077   1.000
    C37     C    0.53482   0.80833   0.19078   1.000
    C38     C    0.37521   0.36961   0.51227   1.000
    C39     C    0.87522   0.36997   0.51375   1.000
    C40     C    0.03496   0.80780   0.80952   1.000
    C41     C    0.53505   0.80774   0.80958   1.000
    C42     C    0.03459   0.69245   0.68934   1.000
    C43     C    0.53471   0.69236   0.68943   1.000
    C44     C    0.21548   0.80694   0.81079   1.000
    C45     C    0.71542   0.80690   0.81084   1.000
    C46     C    0.21530   0.69158   0.69060   1.000
    C47     C    0.71521   0.69155   0.69060   1.000
    C48     C    0.12527   0.38171   0.61121   1.000
    C49     C    0.62542   0.38169   0.61119   1.000
    C50     C    0.12523   0.31340   0.68262   1.000
    C51     C    0.62536   0.31340   0.68262   1.000
    C52     C    0.21550   0.28147   0.71684   1.000
    C53     C    0.71561   0.28147   0.71680   1.000
    C54     C    0.12474   0.11792   0.88860   1.000
    C55     C    0.62480   0.11794   0.88860   1.000
    C56     C    0.12484   0.18575   0.81674   1.000
    C57     C    0.62491   0.18577   0.81675   1.000
    C58     C    0.21531   0.21801   0.78339   1.000
    C59     C    0.71540   0.21801   0.78342   1.000
    C60     C    0.03478   0.28109   0.71602   1.000
    C61     C    0.53489   0.28110   0.71601   1.000
    C62     C    0.03455   0.21762   0.78257   1.000
    C63     C    0.53464   0.21765   0.78256   1.000
    C64     C    0.12480   0.11830   0.11120   1.000
    C65     C    0.62475   0.11830   0.11121   1.000
    C66     C    0.12483   0.18659   0.18263   1.000
    C67     C    0.62477   0.18660   0.18263   1.000
    C68     C    0.03455   0.21845   0.21681   1.000
    C69     C    0.53448   0.21850   0.21677   1.000
    C70     C    0.12522   0.38205   0.38862   1.000
    C71     C    0.62511   0.38209   0.38860   1.000
    C72     C    0.12514   0.31422   0.31676   1.000
    C73     C    0.62504   0.31425   0.31675   1.000
    C74     C    0.03469   0.28190   0.28330   1.000
    C75     C    0.53460   0.28196   0.28332   1.000
    C76     C    0.21526   0.21895   0.21609   1.000
    C77     C    0.71519   0.21894   0.21611   1.000
    C78     C    0.21544   0.28240   0.28263   1.000
    C79     C    0.71535   0.28240   0.28266   1.000
    C80     C    0.37462   0.61831   0.38879   1.000
    C81     C    0.87477   0.61828   0.38877   1.000
    C82     C    0.37468   0.68660   0.31737   1.000
    C83     C    0.87481   0.68659   0.31730   1.000
    C84     C    0.28443   0.71853   0.28312   1.000
    C85     C    0.78454   0.71852   0.28314   1.000
    C86     C    0.37524   0.88206   0.11137   1.000
    C87     C    0.87530   0.88208   0.11138   1.000
    C88     C    0.37513   0.81423   0.18323   1.000
    C89     C    0.87520   0.81425   0.18324   1.000
    C90     C    0.28464   0.78199   0.21657   1.000
    C91     C    0.78473   0.78199   0.21659   1.000
    C92     C    0.46515   0.71890   0.28398   1.000
    C93     C    0.96526   0.71891   0.28396   1.000
    C94     C    0.46540   0.78235   0.21742   1.000
    C95     C    0.96549   0.78238   0.21742   1.000
    C96     C    0.37529   0.88170   0.88877   1.000
    C97     C    0.87524   0.88169   0.88878   1.000
    C98     C    0.37527   0.81340   0.81736   1.000
    C99     C    0.87521   0.81341   0.81736   1.000
    C100    C    0.46556   0.78150   0.78321   1.000
    C101    C    0.96549   0.78155   0.78317   1.000
    C102    C    0.37493   0.61791   0.61138   1.000
    C103    C    0.87482   0.61795   0.61136   1.000
    C104    C    0.37500   0.68575   0.68320   1.000
    C105    C    0.87490   0.68578   0.68322   1.000
    C106    C    0.46544   0.71803   0.71667   1.000
    C107    C    0.96535   0.71810   0.71662   1.000
    C108    C    0.28485   0.78105   0.78387   1.000
    C109    C    0.78478   0.78104   0.78390   1.000
    C110    C    0.28469   0.71760   0.71733   1.000
    C111    C    0.78460   0.71759   0.71735   1.000
    C112    C    0.12512   0.94003   0.00000   1.000
    C113    C    0.62513   0.94001   0.00000   1.000
    C114    C    0.04009   0.09223   0.91650   1.000
    C115    C    0.54016   0.09223   0.91650   1.000
    C116    C    0.04072   0.40808   0.58320   1.000
    C117    C    0.54088   0.40806   0.58318   1.000
    C118    C    0.20940   0.09209   0.91660   1.000
    C119    C    0.70946   0.09212   0.91663   1.000
    C120    C    0.20977   0.40802   0.58331   1.000
    C121    C    0.70995   0.40793   0.58320   1.000
    C122    C    0.12491   0.56000   0.50005   1.000
    C123    C    0.62493   0.55994   0.49998   1.000
    C124    C    0.20988   0.40773   0.41655   1.000
    C125    C    0.70974   0.40782   0.41651   1.000
    C126    C    0.20935   0.09196   0.08321   1.000
    C127    C    0.70929   0.09194   0.08323   1.000
    C128    C    0.04057   0.40789   0.41658   1.000
    C129    C    0.54044   0.40788   0.41659   1.000
    C130    C    0.04029   0.09202   0.08327   1.000
    C131    C    0.54023   0.09201   0.08327   1.000
    C132    C    0.37491   0.05999   0.99995   1.000
    C133    C    0.87492   0.05997   0.99998   1.000
    C134    C    0.45988   0.90776   0.08349   1.000
    C135    C    0.95994   0.90776   0.08348   1.000
    C136    C    0.45916   0.59194   0.41680   1.000
    C137    C    0.95932   0.59192   0.41679   1.000
    C138    C    0.29058   0.90787   0.08336   1.000
    C139    C    0.79064   0.90791   0.08338   1.000
    C140    C    0.29009   0.59206   0.41671   1.000
    C141    C    0.79027   0.59198   0.41668   1.000
    C142    C    0.37511   0.44005   0.50000   1.000
    C143    C    0.87513   0.43999   0.49993   1.000
    C144    C    0.29030   0.59217   0.58347   1.000
    C145    C    0.79016   0.59226   0.58343   1.000
    C146    C    0.29075   0.90806   0.91675   1.000
    C147    C    0.79069   0.90804   0.91677   1.000
    C148    C    0.45960   0.59212   0.58339   1.000
    C149    C    0.95947   0.59211   0.58340   1.000
    C150    C    0.45981   0.90799   0.91670   1.000
    C151    C    0.95975   0.90798   0.91672   1.000
    O152    O    0.56257   0.97000   0.00000   1.000
    O153    O    0.52012   0.04601   0.04164   1.000
    O154    O    0.47995   0.95388   0.04174   1.000
    O155    O    0.52008   0.04612   0.95825   1.000
    O156    O    0.47991   0.95399   0.95835   1.000
    O157    O    0.43746   0.02999   0.99997   1.000
    O158    O    0.02014   0.04601   0.04164   1.000
    O159    O    0.97997   0.95388   0.04174   1.000
    O160    O    0.02005   0.04612   0.95825   1.000
    O161    O    0.97988   0.95399   0.95836   1.000
    O162    O    0.93746   0.02998   0.99999   1.000
    O163    O    0.12516   0.90487   0.99361   1.000
    O164    O    0.18756   0.97001   0.99999   1.000
    O165    O    0.62517   0.90494   0.99332   1.000
    O166    O    0.87488   0.09512   0.00637   1.000
    O167    O    0.37487   0.09506   0.00664   1.000
    O168    O    0.16707   0.10513   0.09721   1.000
    O169    O    0.22968   0.04598   0.04160   1.000
    O170    O    0.66702   0.10512   0.09722   1.000
    O171    O    0.58249   0.10515   0.09724   1.000
    O172    O    0.08254   0.10516   0.09724   1.000
    O173    O    0.33291   0.89497   0.09736   1.000
    O174    O    0.27029   0.95394   0.04167   1.000
    O175    O    0.83297   0.89499   0.09738   1.000
    O176    O    0.91762   0.89492   0.09743   1.000
    O177    O    0.41756   0.89491   0.09743   1.000
    O178    O    0.12482   0.15245   0.14692   1.000
    O179    O    0.62476   0.15245   0.14692   1.000
    O180    O    0.37519   0.84814   0.14730   1.000
    O181    O    0.87525   0.84816   0.14731   1.000
    O182    O    0.66998   0.20277   0.19937   1.000
    O183    O    0.57962   0.20255   0.19970   1.000
    O184    O    0.17005   0.20277   0.19936   1.000
    O185    O    0.07969   0.20252   0.19972   1.000
    O186    O    0.32989   0.79811   0.19990   1.000
    O187    O    0.42027   0.79829   0.20033   1.000
    O188    O    0.82997   0.79812   0.19992   1.000
    O189    O    0.92034   0.79831   0.20033   1.000
    O190    O    0.24994   0.20602   0.20260   1.000
    O191    O    0.74988   0.20600   0.20266   1.000
    O192    O    0.25003   0.79485   0.20290   1.000
    O193    O    0.75011   0.79484   0.20293   1.000
    O194    O    0.49973   0.20538   0.20359   1.000
    O195    O    0.99981   0.20532   0.20364   1.000
    O196    O    0.00018   0.79538   0.20409   1.000
    O197    O    0.50011   0.79534   0.20410   1.000
    O198    O    0.21535   0.25068   0.24936   1.000
    O199    O    0.71527   0.25067   0.24939   1.000
    O200    O    0.28454   0.75026   0.24985   1.000
    O201    O    0.78463   0.75026   0.24987   1.000
    O202    O    0.53454   0.25023   0.25005   1.000
    O203    O    0.03462   0.25018   0.25006   1.000
    O204    O    0.96537   0.75064   0.25069   1.000
    O205    O    0.46527   0.75062   0.25070   1.000
    O206    O    0.25013   0.29542   0.29597   1.000
    O207    O    0.17029   0.29831   0.29969   1.000
    O208    O    0.75004   0.29541   0.29602   1.000
    O209    O    0.67020   0.29833   0.29970   1.000
    O210    O    0.24967   0.70543   0.29627   1.000
    O211    O    0.32956   0.70257   0.30024   1.000
    O212    O    0.74979   0.70542   0.29630   1.000
    O213    O    0.82968   0.70256   0.30022   1.000
    O214    O    0.00007   0.29472   0.29697   1.000
    O215    O    0.07991   0.29806   0.30003   1.000
    O216    O    0.49996   0.29480   0.29694   1.000
    O217    O    0.57982   0.29811   0.30003   1.000
    O218    O    0.99992   0.70595   0.29745   1.000
    O219    O    0.92004   0.70275   0.30063   1.000
    O220    O    0.49981   0.70593   0.29744   1.000
    O221    O    0.41992   0.70275   0.30068   1.000
    O222    O    0.62507   0.34817   0.35267   1.000
    O223    O    0.12518   0.34813   0.35269   1.000
    O224    O    0.87479   0.65244   0.35303   1.000
    O225    O    0.37465   0.65245   0.35308   1.000
    O226    O    0.66742   0.39495   0.40256   1.000
    O227    O    0.58277   0.39498   0.40259   1.000
    O228    O    0.16755   0.39489   0.40258   1.000
    O229    O    0.08290   0.39497   0.40260   1.000
    O230    O    0.83252   0.60513   0.40273   1.000
    O231    O    0.91705   0.60510   0.40278   1.000
    O232    O    0.33235   0.60519   0.40275   1.000
    O233    O    0.41689   0.60513   0.40280   1.000
    O234    O    0.72989   0.45391   0.45821   1.000
    O235    O    0.22994   0.45387   0.45828   1.000
    O236    O    0.02029   0.45394   0.45828   1.000
    O237    O    0.52023   0.45394   0.45829   1.000
    O238    O    0.77015   0.54599   0.45829   1.000
    O239    O    0.27004   0.54603   0.45837   1.000
    O240    O    0.97966   0.54596   0.45839   1.000
    O241    O    0.47959   0.54597   0.45840   1.000
    O242    O    0.12486   0.59501   0.49314   1.000
    O243    O    0.62488   0.59517   0.49385   1.000
    O244    O    0.81258   0.46999   0.49992   1.000
    O245    O    0.68748   0.52997   0.49994   1.000
    O246    O    0.73000   0.45397   0.54155   1.000
    O247    O    0.77010   0.54613   0.54166   1.000
    O248    O    0.87518   0.40498   0.50684   1.000
    O249    O    0.02036   0.45404   0.54160   1.000
    O250    O    0.97973   0.54605   0.54170   1.000
    O251    O    0.52045   0.45403   0.54158   1.000
    O252    O    0.47981   0.54606   0.54169   1.000
    O253    O    0.31256   0.47003   0.50001   1.000
    O254    O    0.37516   0.40483   0.50614   1.000
    O255    O    0.18746   0.53000   0.50004   1.000
    O256    O    0.22989   0.45401   0.54166   1.000
    O257    O    0.27015   0.54609   0.54175   1.000
    O258    O    0.58315   0.39487   0.59719   1.000
    O259    O    0.08299   0.39490   0.59720   1.000
    O260    O    0.66769   0.39481   0.59720   1.000
    O261    O    0.16752   0.39487   0.59726   1.000
    O262    O    0.41727   0.60502   0.59739   1.000
    O263    O    0.91714   0.60503   0.59738   1.000
    O264    O    0.83249   0.60511   0.59740   1.000
    O265    O    0.33262   0.60504   0.59743   1.000
    O266    O    0.62539   0.34754   0.64690   1.000
    O267    O    0.12525   0.34756   0.64692   1.000
    O268    O    0.87486   0.65186   0.64729   1.000
    O269    O    0.37497   0.65183   0.64729   1.000
    O270    O    0.58012   0.29725   0.69932   1.000
    O271    O    0.67048   0.29743   0.69971   1.000
    O272    O    0.08000   0.29724   0.69932   1.000
    O273    O    0.17036   0.29744   0.69973   1.000
    O274    O    0.42022   0.70189   0.69994   1.000
    O275    O    0.32984   0.70167   0.70027   1.000
    O276    O    0.92013   0.70194   0.69992   1.000
    O277    O    0.82975   0.70169   0.70028   1.000
    O278    O    0.50023   0.29406   0.70251   1.000
    O279    O    0.00012   0.29405   0.70253   1.000
    O280    O    0.99997   0.70527   0.70298   1.000
    O281    O    0.50008   0.70520   0.70305   1.000
    O282    O    0.25025   0.29458   0.70369   1.000
    O283    O    0.75037   0.29457   0.70369   1.000
    O284    O    0.74991   0.70457   0.70398   1.000
    O285    O    0.24999   0.70459   0.70396   1.000
    O286    O    0.53477   0.24937   0.74928   1.000
    O287    O    0.03467   0.24935   0.74929   1.000
    O288    O    0.96542   0.74982   0.74990   1.000
    O289    O    0.46550   0.74977   0.74994   1.000
    O290    O    0.71550   0.24974   0.75011   1.000
    O291    O    0.21540   0.24974   0.75012   1.000
    O292    O    0.28477   0.74932   0.75060   1.000
    O293    O    0.78469   0.74932   0.75063   1.000
    O294    O    0.49993   0.20466   0.79589   1.000
    O295    O    0.57977   0.20171   0.79966   1.000
    O296    O    0.99986   0.20462   0.79590   1.000
    O297    O    0.07969   0.20169   0.79966   1.000
    O298    O    0.00023   0.79467   0.79635   1.000
    O299    O    0.92035   0.79748   0.80027   1.000
    O300    O    0.50030   0.79462   0.79639   1.000
    O301    O    0.42041   0.79745   0.80029   1.000
    O302    O    0.24993   0.20516   0.79705   1.000
    O303    O    0.17007   0.20188   0.80007   1.000
    O304    O    0.75001   0.20515   0.79709   1.000
    O305    O    0.67015   0.20189   0.80009   1.000
    O306    O    0.25016   0.79400   0.79733   1.000
    O307    O    0.33006   0.79723   0.80061   1.000
    O308    O    0.75010   0.79397   0.79737   1.000
    O309    O    0.82999   0.79723   0.80063   1.000
    O310    O    0.12479   0.15183   0.85267   1.000
    O311    O    0.62485   0.15185   0.85267   1.000
    O312    O    0.37528   0.84755   0.85307   1.000
    O313    O    0.87522   0.84755   0.85307   1.000
    O314    O    0.08242   0.10508   0.90255   1.000
    O315    O    0.16707   0.10500   0.90260   1.000
    O316    O    0.58248   0.10509   0.90255   1.000
    O317    O    0.66713   0.10503   0.90261   1.000
    O318    O    0.41755   0.89484   0.90274   1.000
    O319    O    0.33302   0.89488   0.90276   1.000
    O320    O    0.91750   0.89484   0.90275   1.000
    O321    O    0.83296   0.89486   0.90278   1.000
    O322    O    0.22970   0.04604   0.95829   1.000
    O323    O    0.27038   0.95403   0.95837   1.000
    O324    O    0.06256   0.97001   0.00000   1.000
    O325    O    0.06245   0.53000   0.50002   1.000
    O326    O    0.56247   0.52997   0.49999   1.000
    O327    O    0.31246   0.02999   0.99996   1.000
    O328    O    0.43757   0.47003   0.50000   1.000
    O329    O    0.93757   0.47000   0.49996   1.000
loop_
    _geom_bond_atom_site_label_1
    _geom_bond_atom_site_label_2
    _geom_bond_distance
    _geom_bond_site_symmetry_2
    _ccdc_geom_bond_type
    C1     O152      0.93111  1_545   S
    C113   O152      0.93111      .   S
    C1     O153      0.96331      .   S
    C131   O153      0.96331      .   S
    C1     O154      0.96546  1_545   S
    C134   O154      0.96546      .   S
    C1     O155      0.96554  1_554   S
    C115   O155      0.96554      .   S
    C1     O156      0.96347  1_544   S
    C150   O156      0.96347      .   S
    C1     O157      0.93101  1_554   S
    C132   O157      0.93101      .   S
    C0     O158      0.96347      .   S
    C130   O158      0.96347      .   S
    C0     O159      0.96527  1_445   S
    C135   O159      0.96527      .   S
    C0     O160      0.96544  1_554   S
    C114   O160      0.96544      .   S
    C0     O161      0.96347  1_444   S
    C151   O161      0.96347      .   S
    C0     O162      0.93082  1_454   S
    C133   O162      0.93082      .   S
    C112   O163      0.48489  1_554   S
    C8     O163      0.48489      .   S
    C112   O164      0.93105  1_554   S
    C4     O164      0.93105      .   S
    C113   O165      0.48485  1_554   S
    C9     O165      0.48485      .   S
    C29    O166      0.48489      .   S
    C133   O166      0.48489  1_556   S
    C28    O167      0.48490      .   S
    C132   O167      0.48490  1_556   S
    C126   O168      0.63745      .   S
    C64    O168      0.63745      .   S
    C126   O169      0.96319      .   S
    C4     O169      0.96319  1_566   S
    C127   O170      0.63741      .   S
    C65    O170      0.63741      .   S
    C131   O171      0.63749      .   S
    C65    O171      0.63749      .   S
    C130   O172      0.63744      .   S
    C64    O172      0.63744      .   S
    C138   O173      0.63709      .   S
    C86    O173      0.63709      .   S
    C138   O174      0.96437      .   S
    C4     O174      0.96437  1_556   S
    C139   O175      0.63705      .   S
    C87    O175      0.63705      .   S
    C135   O176      0.63713      .   S
    C87    O176      0.63713      .   S
    C134   O177      0.63710      .   S
    C86    O177      0.63710      .   S
    C64    O178      0.74687      .   S
    C66    O178      0.74687      .   S
    C65    O179      0.74689      .   S
    C67    O179      0.74689      .   S
    C86    O180      0.74774      .   S
    C88    O180      0.74774      .   S
    C87    O181      0.74776      .   S
    C89    O181      0.74776      .   S
    C67    O182      0.70155      .   S
    C77    O182      0.70155      .   S
    C67    O183      0.70154      .   S
    C69    O183      0.70154      .   S
    C66    O184      0.70157      .   S
    C76    O184      0.70157      .   S
    C66    O185      0.70156      .   S
    C68    O185      0.70156      .   S
    C88    O186      0.70143      .   S
    C90    O186      0.70143      .   S
    C88    O187      0.70135      .   S
    C94    O187      0.70135      .   S
    C89    O188      0.70142      .   S
    C91    O188      0.70142      .   S
    C89    O189      0.70136      .   S
    C95    O189      0.70136      .   S
    C24    O190      0.54433      .   S
    C76    O190      0.54433      .   S
    C25    O191      0.54415      .   S
    C77    O191      0.54415      .   S
    C32    O192      0.54429      .   S
    C90    O192      0.54429      .   S
    C33    O193      0.54426      .   S
    C91    O193      0.54426      .   S
    C20    O194      0.54418      .   S
    C69    O194      0.54418      .   S
    C21    O195      0.54405      .   S
    C68    O195      0.54405  1_455   S
    C36    O196      0.54412      .   S
    C95    O196      0.54412  1_655   S
    C37    O197      0.54424      .   S
    C94    O197      0.54424      .   S
    C76    O198      0.69509      .   S
    C78    O198      0.69509      .   S
    C77    O199      0.69519      .   S
    C79    O199      0.69519      .   S
    C90    O200      0.69513      .   S
    C84    O200      0.69513      .   S
    C91    O201      0.69517      .   S
    C85    O201      0.69517      .   S
    C69    O202      0.69522      .   S
    C75    O202      0.69522      .   S
    C68    O203      0.69478      .   S
    C74    O203      0.69478      .   S
    C95    O204      0.69510      .   S
    C93    O204      0.69510      .   S
    C94    O205      0.69518      .   S
    C92    O205      0.69518      .   S
    C78    O206      0.54427      .   S
    C26    O206      0.54427      .   S
    C78    O207      0.70135      .   S
    C72    O207      0.70135      .   S
    C79    O208      0.54426      .   S
    C27    O208      0.54426      .   S
    C79    O209      0.70136      .   S
    C73    O209      0.70136      .   S
    C84    O210      0.54417      .   S
    C30    O210      0.54417      .   S
    C84    O211      0.70155      .   S
    C82    O211      0.70155      .   S
    C85    O212      0.54421      .   S
    C31    O212      0.54421      .   S
    C85    O213      0.70135      .   S
    C83    O213      0.70135      .   S
    C74    O214      0.54436      .   S
    C23    O214      0.54436  1_655   S
    C74    O215      0.70162      .   S
    C72    O215      0.70162      .   S
    C75    O216      0.54426      .   S
    C22    O216      0.54426      .   S
    C75    O217      0.70140      .   S
    C73    O217      0.70140      .   S
    C93    O218      0.54402      .   S
    C34    O218      0.54402  1_455   S
    C93    O219      0.70136      .   S
    C83    O219      0.70136      .   S
    C92    O220      0.54387      .   S
    C35    O220      0.54387      .   S
    C92    O221      0.70158      .   S
    C82    O221      0.70158      .   S
    C73    O222      0.74777      .   S
    C71    O222      0.74777      .   S
    C72    O223      0.74782      .   S
    C70    O223      0.74782      .   S
    C83    O224      0.74719      .   S
    C81    O224      0.74719      .   S
    C82    O225      0.74678      .   S
    C80    O225      0.74678      .   S
    C71    O226      0.63706      .   S
    C125   O226      0.63706      .   S
    C71    O227      0.63713      .   S
    C129   O227      0.63713      .   S
    C70    O228      0.63718      .   S
    C124   O228      0.63718      .   S
    C70    O229      0.63704      .   S
    C128   O229      0.63704      .   S
    C81    O230      0.63744      .   S
    C141   O230      0.63744      .   S
    C81    O231      0.63749      .   S
    C137   O231      0.63749      .   S
    C80    O232      0.63755      .   S
    C140   O232      0.63755      .   S
    C80    O233      0.63740      .   S
    C136   O233      0.63740      .   S
    C125   O234      0.96487      .   S
    C3     O234      0.96487      .   S
    C124   O235      0.96541      .   S
    C2     O235      0.96541      .   S
    C128   O236      0.96472      .   S
    C6     O236      0.96472      .   S
    C129   O237      0.96442      .   S
    C7     O237      0.96442      .   S
    C141   O238      0.96298      .   S
    C3     O238      0.96298      .   S
    C140   O239      0.96356      .   S
    C2     O239      0.96356      .   S
    C137   O240      0.96265      .   S
    C6     O240      0.96265  1_455   S
    C136   O241      0.96303      .   S
    C7     O241      0.96303      .   S
    C18    O242      0.48492      .   S
    C122   O242      0.48492      .   S
    C19    O243      0.48487      .   S
    C123   O243      0.48487      .   S
    C3     O244      0.93101      .   S
    C143   O244      0.93101      .   S
    C3     O245      0.93093      .   S
    C123   O245      0.93093      .   S
    C3     O246      0.96350      .   S
    C121   O246      0.96350      .   S
    C3     O247      0.96576      .   S
    C145   O247      0.96576      .   S
    C143   O248      0.48492      .   S
    C39    O248      0.48492      .   S
    C6     O249      0.96278      .   S
    C116   O249      0.96278      .   S
    C6     O250      0.96465  1_455   S
    C149   O250      0.96465      .   S
    C7     O251      0.96303      .   S
    C117   O251      0.96303      .   S
    C7     O252      0.96442      .   S
    C148   O252      0.96442      .   S
    C142   O253      0.93094      .   S
    C2     O253      0.93094      .   S
    C142   O254      0.48489      .   S
    C38    O254      0.48489      .   S
    C2     O255      0.93101      .   S
    C122   O255      0.93101      .   S
    C2     O256      0.96339      .   S
    C120   O256      0.96339      .   S
    C2     O257      0.96522      .   S
    C144   O257      0.96522      .   S
    C117   O258      0.63739      .   S
    C49    O258      0.63739      .   S
    C116   O259      0.63746      .   S
    C48    O259      0.63746      .   S
    C121   O260      0.63777      .   S
    C49    O260      0.63777      .   S
    C120   O261      0.63740      .   S
    C48    O261      0.63740      .   S
    C148   O262      0.63714      .   S
    C102   O262      0.63714      .   S
    C149   O263      0.63704      .   S
    C103   O263      0.63704      .   S
    C145   O264      0.63717      .   S
    C103   O264      0.63717      .   S
    C144   O265      0.63706      .   S
    C102   O265      0.63706      .   S
    C49    O266      0.74684      .   S
    C51    O266      0.74684      .   S
    C48    O267      0.74680      .   S
    C50    O267      0.74680      .   S
    C103   O268      0.74783      .   S
    C105   O268      0.74783      .   S
    C102   O269      0.74758      .   S
    C104   O269      0.74758      .   S
    C51    O270      0.70157      .   S
    C61    O270      0.70157      .   S
    C51    O271      0.70132      .   S
    C53    O271      0.70132      .   S
    C50    O272      0.70155      .   S
    C60    O272      0.70155      .   S
    C50    O273      0.70155      .   S
    C52    O273      0.70155      .   S
    C104   O274      0.70153      .   S
    C106   O274      0.70153      .   S
    C104   O275      0.70149      .   S
    C110   O275      0.70149      .   S
    C105   O276      0.70142      .   S
    C107   O276      0.70142      .   S
    C105   O277      0.70135      .   S
    C111   O277      0.70135      .   S
    C14    O278      0.54417      .   S
    C61    O278      0.54417      .   S
    C15    O279      0.54403  1_655   S
    C60    O279      0.54403      .   S
    C42    O280      0.54412  1_455   S
    C107   O280      0.54412      .   S
    C43    O281      0.54426      .   S
    C106   O281      0.54426      .   S
    C10    O282      0.54418      .   S
    C52    O282      0.54418      .   S
    C11    O283      0.54396      .   S
    C53    O283      0.54396      .   S
    C47    O284      0.54447      .   S
    C111   O284      0.54447      .   S
    C46    O285      0.54430      .   S
    C110   O285      0.54430      .   S
    C61    O286      0.69511      .   S
    C63    O286      0.69511      .   S
    C60    O287      0.69516      .   S
    C62    O287      0.69516      .   S
    C107   O288      0.69516      .   S
    C101   O288      0.69516      .   S
    C106   O289      0.69515      .   S
    C100   O289      0.69515      .   S
    C53    O290      0.69559      .   S
    C59    O290      0.69559      .   S
    C52    O291      0.69517      .   S
    C58    O291      0.69517      .   S
    C110   O292      0.69512      .   S
    C108   O292      0.69512      .   S
    C111   O293      0.69515      .   S
    C109   O293      0.69515      .   S
    C63    O294      0.54428      .   S
    C16    O294      0.54428      .   S
    C63    O295      0.70135      .   S
    C57    O295      0.70135      .   S
    C62    O296      0.54413  1_455   S
    C17    O296      0.54413      .   S
    C62    O297      0.70133      .   S
    C56    O297      0.70133      .   S
    C101   O298      0.54404  1_655   S
    C40    O298      0.54404      .   S
    C101   O299      0.70159      .   S
    C99    O299      0.70159      .   S
    C100   O300      0.54418      .   S
    C41    O300      0.54418      .   S
    C100   O301      0.70157      .   S
    C98    O301      0.70157      .   S
    C58    O302      0.54423      .   S
    C12    O302      0.54423      .   S
    C58    O303      0.70142      .   S
    C56    O303      0.70142      .   S
    C59    O304      0.54425      .   S
    C13    O304      0.54425      .   S
    C59    O305      0.70139      .   S
    C57    O305      0.70139      .   S
    C108   O306      0.54418      .   S
    C44    O306      0.54418      .   S
    C108   O307      0.70158      .   S
    C98    O307      0.70158      .   S
    C109   O308      0.54416      .   S
    C45    O308      0.54416      .   S
    C109   O309      0.70157      .   S
    C99    O309      0.70157      .   S
    C56    O310      0.74776      .   S
    C54    O310      0.74776      .   S
    C57    O311      0.74768      .   S
    C55    O311      0.74768      .   S
    C98    O312      0.74683      .   S
    C96    O312      0.74683      .   S
    C99    O313      0.74681      .   S
    C97    O313      0.74681      .   S
    C54    O314      0.63713      .   S
    C114   O314      0.63713      .   S
    C54    O315      0.63705      .   S
    C118   O315      0.63705      .   S
    C55    O316      0.63715      .   S
    C115   O316      0.63715      .   S
    C55    O317      0.63715      .   S
    C119   O317      0.63715      .   S
    C96    O318      0.63745      .   S
    C150   O318      0.63745      .   S
    C96    O319      0.63741      .   S
    C146   O319      0.63741      .   S
    C97    O320      0.63747      .   S
    C151   O320      0.63747      .   S
    C97    O321      0.63745      .   S
    C147   O321      0.63745      .   S
    C118   O322      0.96431      .   S
    C4     O322      0.96431  1_565   S
    C146   O323      0.96322      .   S
    C4     O323      0.96322      .   S
    C112   O324      0.93106      .   S
    C0     O324      0.93106  1_545   S
    C122   O325      0.93126      .   S
    C6     O325      0.93126      .   S
    C123   O326      0.93107      .   S
    C7     O326      0.93107      .   S
    C132   O327      0.93116      .   S
    C4     O327      0.93116  1_565   S
    C142   O328      0.93107      .   S
    C7     O328      0.93107      .   S
    C143   O329      0.93102      .   S
    C6     O329      0.93102  1_455   S
