# CIF file generated by openbabel 2.4.90, see http://openbabel.sf.net
data_I
_chemical_name_common ''
_cell_length_a 10.143
_cell_length_b 12.816
_cell_length_c 12.826
_cell_angle_alpha 81.096
_cell_angle_beta 66.763
_cell_angle_gamma 66.789
_space_group_name_H-M_alt 'P 1'
_space_group_name_Hall 'P 1'
loop_
    _symmetry_equiv_pos_as_xyz
    x,y,z
loop_
    _atom_site_label
    _atom_site_type_symbol
    _atom_site_fract_x
    _atom_site_fract_y
    _atom_site_fract_z
    _atom_site_occupancy
    Cd0     Cd   0.88695   0.54892   0.67758   1.000
    Cd1     Cd   0.56383   0.32257   0.54904   1.000
    Cd2     Cd   0.43612   0.67741   0.45097   1.000
    Cd3     Cd   0.11300   0.45106   0.32243   1.000
    C4      C    0.32735   0.90610   0.43899   1.000
    C5      C    0.67260   0.09388   0.56102   1.000
    C6      C    0.23391   0.43930   0.09387   1.000
    C7      C    0.76604   0.56066   0.90614   1.000
    O8      O    0.45939   0.85510   0.44679   1.000
    O9      O    0.76004   0.14553   0.55524   1.000
    O10     O    0.31604   0.44420   0.14548   1.000
    O11     O    0.90627   0.55200   0.85513   1.000
    O12     O    0.54054   0.14488   0.55324   1.000
    O13     O    0.23991   0.85445   0.44477   1.000
    O14     O    0.68391   0.55578   0.85452   1.000
    O15     O    0.09368   0.44797   0.14488   1.000
loop_
    _geom_bond_atom_site_label_1
    _geom_bond_atom_site_label_2
    _geom_bond_distance
    _geom_bond_site_symmetry_2
    _ccdc_geom_bond_type
    C6     O15       1.27556      .   S
    C6     O10       1.27491      .   S
    O15    Cd3       2.36901      .   S
    O10    Cd3       2.37289      .   S
    C4     O13       1.27514      .   S
    C4     O8        1.27530      .   S
    O13    Cd2       2.37168      .   S
    O8     Cd2       2.37073      .   S
    Cd1    O12       2.37076      .   S
    Cd1    O9        2.37165      .   S
    O12    C5        1.27529      .   S
    O9     C5        1.27513      .   S
    Cd0    O14       2.37294      .   S
    Cd0    O11       2.36900      .   S
    O14    C7        1.27490      .   S
    O11    C7        1.27557      .   S
