# CIF file generated by openbabel 2.4.90, see http://openbabel.sf.net
data_I
_chemical_name_common ''
_cell_length_a 10.143
_cell_length_b 12.816
_cell_length_c 12.826
_cell_angle_alpha 81.096
_cell_angle_beta 66.763
_cell_angle_gamma 66.789
_space_group_name_H-M_alt 'P 1'
_space_group_name_Hall 'P 1'
loop_
    _symmetry_equiv_pos_as_xyz
    x,y,z
loop_
    _atom_site_label
    _atom_site_type_symbol
    _atom_site_fract_x
    _atom_site_fract_y
    _atom_site_fract_z
    _atom_site_occupancy
    N0      N    0.22380   0.15159   0.40042   1.000
    N1      N    0.24993   0.50004   0.49998   1.000
    N2      N    0.62439   0.59930   0.15153   1.000
    N3      N    0.75003   0.49993   0.50002   1.000
    N4      N    0.37556   0.40068   0.84848   1.000
    N5      N    0.77615   0.84839   0.59959   1.000
    Zr6     Zr   0.81079   0.55434   0.82334   1.000
    O7      O    0.80565   0.52687   0.69528   1.000
    O8      O    0.81314   0.64964   0.72390   1.000
    O9      O    0.97184   0.52691   0.69526   1.000
    O10     O    0.74394   0.56954   0.94188   1.000
    Zr11    Zr   0.18916   0.44563   0.17666   1.000
    O12     O    0.25601   0.43043   0.05813   1.000
    O13     O    0.02811   0.47307   0.30475   1.000
    O14     O    0.19431   0.47311   0.30472   1.000
    O15     O    0.18681   0.35034   0.27611   1.000
    Zr16    Zr   0.63425   0.17671   0.55463   1.000
    O17     O    0.68603   0.05812   0.56985   1.000
    O18     O    0.53690   0.27625   0.64984   1.000
    O19     O    0.50084   0.30478   0.52705   1.000
    O20     O    0.66711   0.30474   0.52705   1.000
    Zr21    Zr   0.36569   0.82327   0.44538   1.000
    O22     O    0.49911   0.69520   0.47296   1.000
    O23     O    0.33284   0.69524   0.47296   1.000
    O24     O    0.46305   0.72372   0.35017   1.000
    O25     O    0.31392   0.94186   0.43016   1.000
loop_
    _geom_bond_atom_site_label_1
    _geom_bond_atom_site_label_2
    _geom_bond_distance
    _geom_bond_site_symmetry_2
    _ccdc_geom_bond_type
    Zr6    O7        1.75661      .   S
    N3     O7        2.87149      .   S
    Zr6    O8        1.62353      .   S
    N5     O8        2.76266      .   S
    Zr6    O9        1.76054      .   S
    N1     O9        2.87658  1_455   S
    Zr6    O10       1.40831      .   S
    N2     O10       2.49528  1_554   S
    Zr11   O12       1.40830      .   S
    N4     O12       2.49526  1_556   S
    Zr11   O13       1.76050      .   S
    N3     O13       2.87654  1_655   S
    Zr11   O14       1.75661      .   S
    N1     O14       2.87149      .   S
    Zr11   O15       1.62351      .   S
    N0     O15       2.76266      .   S
    Zr16   O17       1.40844      .   S
    N5     O17       2.49546  1_565   S
    Zr16   O18       1.62215      .   S
    N4     O18       2.76094      .   S
    Zr16   O19       1.75997      .   S
    N1     O19       2.87543      .   S
    Zr16   O20       1.75691      .   S
    N3     O20       2.87150      .   S
    Zr21   O22       1.75999      .   S
    N3     O22       2.87547      .   S
    Zr21   O23       1.75690      .   S
    N1     O23       2.87148      .   S
    Zr21   O24       1.62219      .   S
    N2     O24       2.76098      .   S
    Zr21   O25       1.40844      .   S
    N0     O25       2.49545  1_545   S
