# CIF file generated by openbabel 2.4.90, see http://openbabel.sf.net
data_I
_chemical_name_common ''
_cell_length_a 10.143
_cell_length_b 12.816
_cell_length_c 12.826
_cell_angle_alpha 81.096
_cell_angle_beta 66.763
_cell_angle_gamma 66.789
_space_group_name_H-M_alt 'P 1'
_space_group_name_Hall 'P 1'
loop_
    _symmetry_equiv_pos_as_xyz
    x,y,z
loop_
    _atom_site_label
    _atom_site_type_symbol
    _atom_site_fract_x
    _atom_site_fract_y
    _atom_site_fract_z
    _atom_site_occupancy
    C0      C    0.11300   0.45106   0.32243   1.000
    C1      C    0.88695   0.54892   0.67758   1.000
    C2      C    0.56383   0.32257   0.54904   1.000
    C3      C    0.43612   0.67741   0.45097   1.000
    C4      C    0.38470   0.25830   0.38184   1.000
    C5      C    0.47889   0.04970   0.41774   1.000
    C6      C    0.02679   0.74192   0.61503   1.000
    C7      C    0.94751   0.95063   0.57988   1.000
    C8      C    0.64243   0.38325   0.74199   1.000
    C9      C    0.52836   0.41852   0.95069   1.000
    C10     C    0.76801   0.61586   0.25814   1.000
    C11     C    0.89748   0.58019   0.04966   1.000
    C12     C    0.61524   0.74168   0.61818   1.000
    C13     C    0.52106   0.95028   0.58227   1.000
    C14     C    0.97315   0.25806   0.38500   1.000
    C15     C    0.05244   0.04935   0.42013   1.000
    C16     C    0.35751   0.61675   0.25802   1.000
    C17     C    0.47158   0.58145   0.04932   1.000
    C18     C    0.23194   0.38411   0.74187   1.000
    C19     C    0.10248   0.41976   0.95035   1.000
    C20     C    0.31570   0.20863   0.38912   1.000
    C21     C    0.36721   0.09256   0.40958   1.000
    C22     C    0.91468   0.79148   0.60919   1.000
    C23     C    0.87024   0.90759   0.58897   1.000
    C24     C    0.52410   0.38999   0.79156   1.000
    C25     C    0.45971   0.41024   0.90764   1.000
    C26     C    0.70570   0.60946   0.20854   1.000
    C27     C    0.77736   0.58909   0.09248   1.000
    C28     C    0.68426   0.79135   0.61089   1.000
    C29     C    0.63273   0.90742   0.59044   1.000
    C30     C    0.08528   0.20851   0.39082   1.000
    C31     C    0.12971   0.09239   0.41105   1.000
    C32     C    0.47585   0.60998   0.20845   1.000
    C33     C    0.54023   0.58974   0.09237   1.000
    C34     C    0.29426   0.39050   0.79147   1.000
    C35     C    0.22259   0.41088   0.90753   1.000
    C36     C    0.27364   0.03250   0.41997   1.000
    C37     C    0.32735   0.90610   0.43899   1.000
    C38     C    0.72630   0.96748   0.58005   1.000
    C39     C    0.67260   0.09388   0.56102   1.000
    C40     C    0.30641   0.42025   0.96754   1.000
    C41     C    0.23391   0.43930   0.09387   1.000
    C42     C    0.69354   0.57973   0.03247   1.000
    C43     C    0.76604   0.56066   0.90614   1.000
    C44     C    0.75003   0.49993   0.50003   1.000
    C45     C    0.24993   0.50004   0.49998   1.000
    C46     C    0.17726   0.26593   0.37896   1.000
    C47     C    0.82270   0.73404   0.62104   1.000
    C48     C    0.44326   0.37927   0.73415   1.000
    C49     C    0.55669   0.62070   0.26586   1.000
    C50     C    0.45939   0.85510   0.44679   1.000
    C51     C    0.85522   0.55107   0.40887   1.000
    C52     C    0.76004   0.14553   0.55524   1.000
    C53     C    0.81499   0.44877   0.59127   1.000
    C54     C    0.31604   0.44420   0.14548   1.000
    C55     C    0.40604   0.40873   0.44885   1.000
    C56     C    0.90627   0.55200   0.85513   1.000
    C57     C    0.26399   0.59134   0.55121   1.000
    C58     C    0.54054   0.14488   0.55324   1.000
    C59     C    0.14474   0.44890   0.59113   1.000
    C60     C    0.23991   0.85445   0.44477   1.000
    C61     C    0.18497   0.55120   0.40873   1.000
    C62     C    0.68391   0.55578   0.85452   1.000
    C63     C    0.59392   0.59125   0.55115   1.000
    C64     C    0.09368   0.44797   0.14488   1.000
    C65     C    0.73596   0.40864   0.44880   1.000
    O66     O    0.61689   0.58474   0.06242   1.000
    O67     O    0.73545   0.58441   0.06248   1.000
    O68     O    0.72979   0.57020   0.96931   1.000
    O69     O    0.50591   0.58560   0.07085   1.000
    O70     O    0.83742   0.58464   0.07107   1.000
    O71     O    0.50804   0.59986   0.15041   1.000
    O72     O    0.74153   0.59927   0.15051   1.000
    O73     O    0.16380   0.44364   0.11937   1.000
    O74     O    0.27498   0.44175   0.11968   1.000
    O75     O    0.27016   0.42978   0.03070   1.000
    O76     O    0.10334   0.44951   0.23365   1.000
    O77     O    0.21452   0.44763   0.23396   1.000
    O78     O    0.41668   0.61336   0.23323   1.000
    O79     O    0.51627   0.61534   0.23716   1.000
    O80     O    0.73685   0.61266   0.23334   1.000
    O81     O    0.63120   0.61508   0.23720   1.000
    O82     O    0.49641   0.64906   0.35841   1.000
    O83     O    0.14513   0.35849   0.35070   1.000
    O84     O    0.14899   0.50113   0.36558   1.000
    O85     O    0.98411   0.50106   0.36565   1.000
    O86     O    0.24648   0.23728   0.38404   1.000
    O87     O    0.13127   0.23722   0.38489   1.000
    O88     O    0.35020   0.23346   0.38548   1.000
    O89     O    0.02921   0.23329   0.38791   1.000
    O90     O    0.34145   0.15059   0.39935   1.000
    O91     O    0.10749   0.15045   0.40093   1.000
    O92     O    0.21745   0.52562   0.45435   1.000
    O93     O    0.80263   0.52551   0.45445   1.000
    O94     O    0.42305   0.07113   0.41366   1.000
    O95     O    0.32043   0.06253   0.41478   1.000
    O96     O    0.20168   0.06245   0.41551   1.000
    O97     O    0.09107   0.07087   0.41559   1.000
    O98     O    0.30050   0.96930   0.42948   1.000
    O99     O    0.28363   0.88028   0.44188   1.000
    O100    O    0.39337   0.88060   0.44289   1.000
    O101    O    0.33801   0.76593   0.44787   1.000
    O102    O    0.44776   0.76626   0.44888   1.000
    O103    O    0.74300   0.45429   0.47441   1.000
    O104    O    0.64990   0.36560   0.49892   1.000
    O105    O    0.32798   0.45439   0.47441   1.000
    O106    O    0.48494   0.36565   0.49895   1.000
    O107    O    0.51502   0.63433   0.50106   1.000
    O108    O    0.35006   0.63438   0.50109   1.000
    O109    O    0.25696   0.54569   0.52559   1.000
    O110    O    0.19733   0.47447   0.54555   1.000
    O111    O    0.67198   0.54559   0.52559   1.000
    O112    O    0.78251   0.47435   0.54565   1.000
    O113    O    0.55219   0.23372   0.55114   1.000
    O114    O    0.66193   0.23405   0.55214   1.000
    O115    O    0.50355   0.35092   0.64160   1.000
    O116    O    0.60657   0.11938   0.55713   1.000
    O117    O    0.71632   0.11970   0.55813   1.000
    O118    O    0.69945   0.03068   0.57053   1.000
    O119    O    0.90887   0.92911   0.58442   1.000
    O120    O    0.79827   0.93754   0.58451   1.000
    O121    O    0.67951   0.93745   0.58524   1.000
    O122    O    0.57690   0.92885   0.58636   1.000
    O123    O    0.89246   0.84953   0.59908   1.000
    O124    O    0.65850   0.84939   0.60066   1.000
    O125    O    0.01585   0.49891   0.63435   1.000
    O126    O    0.85097   0.49885   0.63443   1.000
    O127    O    0.97073   0.76670   0.61211   1.000
    O128    O    0.86869   0.76276   0.61511   1.000
    O129    O    0.64975   0.76652   0.61453   1.000
    O130    O    0.75348   0.76270   0.61596   1.000
    O131    O    0.85483   0.64148   0.64931   1.000
    O132    O    0.78543   0.55235   0.76605   1.000
    O133    O    0.89661   0.55046   0.76636   1.000
    O134    O    0.36876   0.38488   0.76281   1.000
    O135    O    0.48368   0.38463   0.76285   1.000
    O136    O    0.26310   0.38731   0.76667   1.000
    O137    O    0.58327   0.38662   0.76678   1.000
    O138    O    0.25843   0.40069   0.84950   1.000
    O139    O    0.49191   0.40011   0.84960   1.000
    O140    O    0.72498   0.55822   0.88033   1.000
    O141    O    0.83616   0.55633   0.88064   1.000
    O142    O    0.16254   0.41532   0.92894   1.000
    O143    O    0.26450   0.41557   0.93753   1.000
    O144    O    0.49404   0.41438   0.92916   1.000
    O145    O    0.38306   0.41524   0.93759   1.000
loop_
    _geom_bond_atom_site_label_1
    _geom_bond_atom_site_label_2
    _geom_bond_distance
    _geom_bond_site_symmetry_2
    _ccdc_geom_bond_type
    C42    O66       0.69914      .   S
    C33    O66       0.69914      .   S
    C42    O67       0.69911      .   S
    C27    O67       0.69911      .   S
    C42    O68       0.75276  1_554   S
    C43    O68       0.75276      .   S
    C17    O69       0.54338      .   S
    C33    O69       0.54338      .   S
    C11    O70       0.54336      .   S
    C27    O70       0.54336      .   S
    C33    O71       0.69446      .   S
    C32    O71       0.69446      .   S
    C27    O72       0.69446      .   S
    C26    O72       0.69446      .   S
    C41    O73       0.63778      .   S
    C64    O73       0.63778      .   S
    C41    O74       0.63745      .   S
    C54    O74       0.63745      .   S
    C41    O75       0.75276      .   S
    C40    O75       0.75276  1_556   S
    C64    O76       1.18450      .   S
    C0     O76       1.18450      .   S
    C54    O77       1.18645      .   S
    C0     O77       1.18645      .   S
    C32    O78       0.54438      .   S
    C16    O78       0.54438      .   S
    C32    O79       0.67639      .   S
    C49    O79       0.67639      .   S
    C26    O80       0.54434      .   S
    C10    O80       0.54434      .   S
    C26    O81       0.67637      .   S
    C49    O81       0.67637      .   S
    C49    O82       1.14051      .   S
    C3     O82       1.14051      .   S
    C0     O83       1.14027      .   S
    C46    O83       1.14027      .   S
    C0     O84       1.14249      .   S
    C61    O84       1.14249      .   S
    C0     O85       1.14231  1_455   S
    C51    O85       1.14231      .   S
    C46    O86       0.67638      .   S
    C20    O86       0.67638      .   S
    C46    O87       0.67638      .   S
    C30    O87       0.67638      .   S
    C4     O88       0.54433      .   S
    C20    O88       0.54433      .   S
    C14    O89       0.54437  1_655   S
    C30    O89       0.54437      .   S
    C20    O90       0.69447      .   S
    C21    O90       0.69447      .   S
    C30    O91       0.69444      .   S
    C31    O91       0.69444      .   S
    C61    O92       0.75236      .   S
    C45    O92       0.75236      .   S
    C51    O93       0.75242      .   S
    C44    O93       0.75242      .   S
    C21    O94       0.54341      .   S
    C5     O94       0.54341      .   S
    C21    O95       0.69913      .   S
    C36    O95       0.69913      .   S
    C31    O96       0.69914      .   S
    C36    O96       0.69914      .   S
    C31    O97       0.54335      .   S
    C15    O97       0.54335      .   S
    C36    O98       0.75288  1_545   S
    C37    O98       0.75288      .   S
    C37    O99       0.63757      .   S
    C60    O99       0.63757      .   S
    C37    O100      0.63765      .   S
    C50    O100      0.63765      .   S
    C60    O101      1.18584      .   S
    C3     O101      1.18584      .   S
    C50    O102      1.18537      .   S
    C3     O102      1.18537      .   S
    C65    O103      0.75245      .   S
    C44    O103      0.75245      .   S
    C65    O104      1.14302      .   S
    C2     O104      1.14302      .   S
    C55    O105      0.75241      .   S
    C45    O105      0.75241      .   S
    C55    O106      1.14266      .   S
    C2     O106      1.14266      .   S
    C3     O107      1.14266      .   S
    C63    O107      1.14266      .   S
    C3     O108      1.14301      .   S
    C57    O108      1.14301      .   S
    C45    O109      0.75245      .   S
    C57    O109      0.75245      .   S
    C45    O110      0.75242      .   S
    C59    O110      0.75242      .   S
    C44    O111      0.75240      .   S
    C63    O111      0.75240      .   S
    C44    O112      0.75236      .   S
    C53    O112      0.75236      .   S
    C2     O113      1.18538      .   S
    C58    O113      1.18538      .   S
    C2     O114      1.18582      .   S
    C52    O114      1.18582      .   S
    C2     O115      1.14050      .   S
    C48    O115      1.14050      .   S
    C58    O116      0.63765      .   S
    C39    O116      0.63765      .   S
    C52    O117      0.63756      .   S
    C39    O117      0.63756      .   S
    C39    O118      0.75289      .   S
    C38    O118      0.75289  1_565   S
    C7     O119      0.54335      .   S
    C23    O119      0.54335      .   S
    C38    O120      0.69913      .   S
    C23    O120      0.69913      .   S
    C38    O121      0.69912      .   S
    C29    O121      0.69912      .   S
    C13    O122      0.54341      .   S
    C29    O122      0.54341      .   S
    C23    O123      0.69444      .   S
    C22    O123      0.69444      .   S
    C29    O124      0.69448      .   S
    C28    O124      0.69448      .   S
    C59    O125      1.14234      .   S
    C1     O125      1.14234  1_655   S
    C53    O126      1.14250      .   S
    C1     O126      1.14250      .   S
    C22    O127      0.54438      .   S
    C6     O127      0.54438  1_455   S
    C22    O128      0.67639      .   S
    C47    O128      0.67639      .   S
    C28    O129      0.54433      .   S
    C12    O129      0.54433      .   S
    C28    O130      0.67637      .   S
    C47    O130      0.67637      .   S
    C47    O131      1.14028      .   S
    C1     O131      1.14028      .   S
    C1     O132      1.18647      .   S
    C62    O132      1.18647      .   S
    C1     O133      1.18450      .   S
    C56    O133      1.18450      .   S
    C48    O134      0.67637      .   S
    C34    O134      0.67637      .   S
    C48    O135      0.67639      .   S
    C24    O135      0.67639      .   S
    C18    O136      0.54435      .   S
    C34    O136      0.54435      .   S
    C8     O137      0.54438      .   S
    C24    O137      0.54438      .   S
    C34    O138      0.69446      .   S
    C35    O138      0.69446      .   S
    C24    O139      0.69446      .   S
    C25    O139      0.69446      .   S
    C62    O140      0.63745      .   S
    C43    O140      0.63745      .   S
    C56    O141      0.63779      .   S
    C43    O141      0.63779      .   S
    C35    O142      0.54337      .   S
    C19    O142      0.54337      .   S
    C35    O143      0.69911      .   S
    C40    O143      0.69911      .   S
    C25    O144      0.54337      .   S
    C9     O144      0.54337      .   S
    C25    O145      0.69915      .   S
    C40    O145      0.69915      .   S
