# CIF file generated by openbabel 2.4.90, see http://openbabel.sf.net
data_I
_chemical_name_common ''
_cell_length_a 13.144
_cell_length_b 13.126
_cell_length_c 13.66
_cell_angle_alpha 89.933
_cell_angle_beta 89.933
_cell_angle_gamma 89.989
_space_group_name_H-M_alt 'P 1'
_space_group_name_Hall 'P 1'
loop_
    _symmetry_equiv_pos_as_xyz
    x,y,z
loop_
    _atom_site_label
    _atom_site_type_symbol
    _atom_site_fract_x
    _atom_site_fract_y
    _atom_site_fract_z
    _atom_site_occupancy
    H0      H    0.08281   0.31129   0.79432   1.000
    H1      H    0.08619   0.35677   0.67149   1.000
    H2      H    0.15908   0.42137   0.76546   1.000
    H3      H    0.04097   0.79386   0.97700   1.000
    H4      H    0.11786   0.85597   0.06829   1.000
    H5      H    0.00581   0.78965   0.10582   1.000
    H6      H    0.41724   0.18854   0.79284   1.000
    H7      H    0.41565   0.14254   0.67025   1.000
    H8      H    0.34235   0.07761   0.76399   1.000
    H9      H    0.45980   0.70616   0.97670   1.000
    H10     H    0.38294   0.64370   0.06805   1.000
    H11     H    0.49440   0.71090   0.10544   1.000
    H12     H    0.68848   0.58312   0.29420   1.000
    H13     H    0.64313   0.58636   0.17143   1.000
    H14     H    0.57817   0.65896   0.26554   1.000
    H15     H    0.20605   0.54019   0.47729   1.000
    H16     H    0.14390   0.61701   0.56871   1.000
    H17     H    0.21068   0.50504   0.60596   1.000
    H18     H    0.81033   0.91682   0.29468   1.000
    H19     H    0.85569   0.91383   0.17183   1.000
    H20     H    0.92043   0.84072   0.26572   1.000
    H21     H    0.29292   0.95892   0.47500   1.000
    H22     H    0.35587   0.88239   0.56614   1.000
    H23     H    0.28952   0.99458   0.60350   1.000
    H24     H    0.91717   0.68873   0.20566   1.000
    H25     H    0.91379   0.64326   0.32848   1.000
    H26     H    0.84086   0.57868   0.23452   1.000
    H27     H    0.95900   0.20615   0.02289   1.000
    H28     H    0.88215   0.14402   0.93168   1.000
    H29     H    0.99418   0.21037   0.89416   1.000
    H30     H    0.58279   0.81138   0.20714   1.000
    H31     H    0.58434   0.85739   0.32972   1.000
    H32     H    0.65767   0.92232   0.23600   1.000
    H33     H    0.54020   0.29371   0.02329   1.000
    H34     H    0.61704   0.35620   0.93195   1.000
    H35     H    0.50559   0.28900   0.89455   1.000
    H36     H    0.31149   0.41681   0.70574   1.000
    H37     H    0.35684   0.41357   0.82850   1.000
    H38     H    0.42182   0.34099   0.73440   1.000
    H39     H    0.79394   0.45980   0.52262   1.000
    H40     H    0.85606   0.38296   0.43121   1.000
    H41     H    0.78929   0.49493   0.39395   1.000
    H42     H    0.18967   0.08318   0.70527   1.000
    H43     H    0.14433   0.08618   0.82813   1.000
    H44     H    0.07958   0.15928   0.73423   1.000
    H45     H    0.70709   0.04104   0.52499   1.000
    H46     H    0.64412   0.11758   0.43380   1.000
    H47     H    0.71047   0.00539   0.39648   1.000
    C48     C    0.08923   0.37951   0.74868   1.000
    C49     C    0.06822   0.79077   0.05283   1.000
    C50     C    0.41198   0.12009   0.74750   1.000
    C51     C    0.43219   0.70920   0.05238   1.000
    C52     C    0.62036   0.58923   0.24866   1.000
    C53     C    0.20917   0.56754   0.55298   1.000
    C54     C    0.87845   0.91063   0.24900   1.000
    C55     C    0.29049   0.93187   0.55087   1.000
    C56     C    0.91073   0.62052   0.25100   1.000
    C57     C    0.93176   0.20924   0.94715   1.000
    C58     C    0.58803   0.87984   0.25242   1.000
    C59     C    0.56780   0.29068   0.94761   1.000
    C60     C    0.37961   0.41071   0.75129   1.000
    C61     C    0.79079   0.43244   0.44694   1.000
    C62     C    0.12156   0.08937   0.75095   1.000
    C63     C    0.70951   0.06810   0.44912   1.000
loop_
    _geom_bond_atom_site_label_1
    _geom_bond_atom_site_label_2
    _geom_bond_distance
    _geom_bond_site_symmetry_2
    _ccdc_geom_bond_type
    H27    C57       1.09592  1_554   S
    H33    C59       1.09597  1_554   S
    C51    H10       1.09707      .   S
    C51    H11       1.09358      .   S
    C51    H9        1.09600  1_554   S
    C49    H4        1.09711      .   S
    C49    H5        1.09355      .   S
    C49    H3        1.09712  1_554   S
    H13    C52       1.09694      .   S
    H19    C54       1.09687      .   S
    H24    C56       1.09140      .   S
    H30    C58       1.09370      .   S
    H26    C56       1.09388      .   S
    H32    C58       1.09471      .   S
    C52    H14       1.09475      .   S
    C52    H12       1.09372      .   S
    C54    H20       1.09466      .   S
    C54    H18       1.09380      .   S
    C56    H25       1.10077      .   S
    C58    H31       1.09696      .   S
    H41    C61       1.09349      .   S
    H47    C63       1.09360      .   S
    H40    C61       1.09708      .   S
    H46    C63       1.09727      .   S
    C61    H39       1.09561      .   S
    C63    H45       1.09558      .   S
    H21    C55       1.09555      .   S
    H15    C53       1.09568      .   S
    C55    H22       1.09708      .   S
    C55    H23       1.09357      .   S
    C53    H16       1.09709      .   S
    C53    H17       1.09349      .   S
    H7     C50       1.09630      .   S
    H1     C48       1.09697      .   S
    H42    C62       1.09377      .   S
    H36    C60       1.09379      .   S
    H44    C62       1.09465      .   S
    H38    C60       1.09476      .   S
    C50    H8        1.09486      .   S
    C50    H6        1.09412      .   S
    C48    H2        1.09471      .   S
    C48    H0        1.09370      .   S
    C62    H43       1.09702      .   S
    C60    H37       1.09668      .   S
    H29    C57       1.09362      .   S
    H35    C59       1.09361      .   S
    H28    C57       1.09715      .   S
    H34    C59       1.09710      .   S
