# CIF file generated by openbabel 2.4.90, see http://openbabel.sf.net
data_I
_chemical_name_common ''
_cell_length_a 13.144
_cell_length_b 13.126
_cell_length_c 13.66
_cell_angle_alpha 89.933
_cell_angle_beta 89.933
_cell_angle_gamma 89.989
_space_group_name_H-M_alt 'P 1'
_space_group_name_Hall 'P 1'
loop_
    _symmetry_equiv_pos_as_xyz
    x,y,z
loop_
    _atom_site_label
    _atom_site_type_symbol
    _atom_site_fract_x
    _atom_site_fract_y
    _atom_site_fract_z
    _atom_site_occupancy
    Ag0     Ag   0.67554   0.16852   0.75137   1.000
    Ag1     Ag   0.66743   0.32510   0.25070   1.000
    Ag2     Ag   0.83115   0.17422   0.25102   1.000
    Ag3     Ag   0.17416   0.66704   0.24952   1.000
    Ag4     Ag   0.32442   0.83145   0.24857   1.000
    Ag5     Ag   0.33249   0.67483   0.74925   1.000
    Ag6     Ag   0.16885   0.82578   0.74897   1.000
    Ag7     Ag   0.82580   0.33292   0.75044   1.000
    C8      C    0.12065   0.62050   0.86075   1.000
    C9      C    0.38060   0.88009   0.86016   1.000
    C10     C    0.37898   0.61928   0.36046   1.000
    C11     C    0.11928   0.87909   0.36030   1.000
    C12     C    0.87930   0.37948   0.13922   1.000
    C13     C    0.61940   0.11985   0.13978   1.000
    C14     C    0.62101   0.38073   0.63951   1.000
    C15     C    0.88072   0.12091   0.63958   1.000
    S16     S    0.98140   0.46353   0.76886   1.000
    S17     S    0.14891   0.67901   0.06658   1.000
    S18     S    0.52040   0.03715   0.76896   1.000
    S19     S    0.35079   0.82050   0.06560   1.000
    S20     S    0.53692   0.48087   0.26890   1.000
    S21     S    0.32050   0.64870   0.56626   1.000
    S22     S    0.96214   0.01871   0.26904   1.000
    S23     S    0.17923   0.85081   0.56580   1.000
    S24     S    0.01853   0.53646   0.23111   1.000
    S25     S    0.85102   0.32096   0.93338   1.000
    S26     S    0.47960   0.96277   0.23101   1.000
    S27     S    0.64925   0.17942   0.93435   1.000
    S28     S    0.46303   0.51909   0.73106   1.000
    S29     S    0.67947   0.35126   0.43370   1.000
    S30     S    0.03786   0.98129   0.73094   1.000
    S31     S    0.82076   0.14917   0.43418   1.000
    O32     O    0.08403   0.70656   0.83764   1.000
    O33     O    0.20388   0.58065   0.83420   1.000
    O34     O    0.41767   0.79426   0.83710   1.000
    O35     O    0.29753   0.91998   0.83334   1.000
    O36     O    0.29330   0.58198   0.33763   1.000
    O37     O    0.41831   0.70268   0.33349   1.000
    O38     O    0.20506   0.91598   0.33705   1.000
    O39     O    0.07956   0.79581   0.33388   1.000
    O40     O    0.91596   0.29343   0.16233   1.000
    O41     O    0.79606   0.41928   0.16573   1.000
    O42     O    0.58229   0.20566   0.16285   1.000
    O43     O    0.70248   0.08000   0.16662   1.000
    O44     O    0.70669   0.41803   0.66233   1.000
    O45     O    0.58169   0.29733   0.66647   1.000
    O46     O    0.79494   0.08403   0.66291   1.000
    O47     O    0.92044   0.20420   0.66607   1.000
    Og48    Og   0.09924   0.59971   0.88453   1.000
    Og49    Og   0.40177   0.90079   0.88405   1.000
    Og50    Og   0.39986   0.59810   0.38430   1.000
    Og51    Og   0.09863   0.90048   0.38418   1.000
    Og52    Og   0.90069   0.40029   0.11543   1.000
    Og53    Og   0.59823   0.09913   0.11589   1.000
    Og54    Og   0.60012   0.40189   0.61566   1.000
    Og55    Og   0.90137   0.09952   0.61573   1.000
    Ts56    Ts   0.98473   0.46918   0.81205   1.000
    Ts57    Ts   0.01735   0.43553   0.76213   1.000
    Ts58    Ts   0.12064   0.64545   0.05546   1.000
    Ts59    Ts   0.12201   0.71626   0.06200   1.000
    Ts60    Ts   0.51670   0.03142   0.81213   1.000
    Ts61    Ts   0.48426   0.06480   0.76181   1.000
    Ts62    Ts   0.37906   0.85417   0.05469   1.000
    Ts63    Ts   0.37792   0.78340   0.06119   1.000
    Ts64    Ts   0.53116   0.48426   0.31208   1.000
    Ts65    Ts   0.56473   0.51699   0.26215   1.000
    Ts66    Ts   0.35412   0.62045   0.55520   1.000
    Ts67    Ts   0.28339   0.62165   0.56183   1.000
    Ts68    Ts   0.96800   0.01531   0.31221   1.000
    Ts69    Ts   0.93424   0.98268   0.26236   1.000
    Ts70    Ts   0.14561   0.87909   0.55483   1.000
    Ts71    Ts   0.21632   0.87783   0.56082   1.000
    Ts72    Ts   0.01520   0.53081   0.18792   1.000
    Ts73    Ts   0.98259   0.56448   0.23774   1.000
    Ts74    Ts   0.87929   0.35452   0.94450   1.000
    Ts75    Ts   0.87793   0.28372   0.93797   1.000
    Ts76    Ts   0.48331   0.96849   0.18784   1.000
    Ts77    Ts   0.51575   0.93512   0.23815   1.000
    Ts78    Ts   0.62096   0.14575   0.94526   1.000
    Ts79    Ts   0.62210   0.21651   0.93877   1.000
    Ts80    Ts   0.46880   0.51572   0.68788   1.000
    Ts81    Ts   0.43523   0.48296   0.73780   1.000
    Ts82    Ts   0.64586   0.37952   0.44476   1.000
    Ts83    Ts   0.71657   0.37832   0.43811   1.000
    Ts84    Ts   0.03200   0.98468   0.68777   1.000
    Ts85    Ts   0.06576   0.01732   0.73761   1.000
    Ts86    Ts   0.85438   0.12089   0.44515   1.000
    Ts87    Ts   0.78367   0.12214   0.43916   1.000
loop_
    _geom_bond_atom_site_label_1
    _geom_bond_atom_site_label_2
    _geom_bond_distance
    _geom_bond_site_symmetry_2
    _ccdc_geom_bond_type
    S19    Ag4       2.52713      .   S
    S17    Ag3       2.52600      .   S
    C12    O40       1.26755      .   S
    C12    O41       1.26515      .   S
    C13    O42       1.26736      .   S
    C13    O43       1.26519      .   S
    O40    Ag2       2.26982      .   S
    O42    Ag1       2.27126      .   S
    O41    Ag1       2.39308      .   S
    O43    Ag2       2.39320      .   S
    S26    Ag4       2.68103      .   S
    S24    Ag3       2.68129      .   S
    Ag4    Ag3       2.92568      .   S
    Ag4    O37       2.39237      .   S
    Ag4    O38       2.26961      .   S
    Ag3    O39       2.39399      .   S
    Ag3    O36       2.26891      .   S
    Ag1    Ag2       2.92431      .   S
    Ag1    S20       2.68024      .   S
    Ag1    S29       2.52879      .   S
    Ag2    S22       2.68147      .   S
    Ag2    S31       2.52664      .   S
    O37    C10       1.26492      .   S
    O39    C11       1.26468      .   S
    O38    C11       1.26714      .   S
    O36    C10       1.26755      .   S
    S23    Ag6       2.52674      .   S
    S21    Ag5       2.52855      .   S
    C14    O44       1.26754      .   S
    C14    O45       1.26490      .   S
    C15    O46       1.26740      .   S
    C15    O47       1.26500      .   S
    O44    Ag7       2.26897      .   S
    O46    Ag0       2.26957      .   S
    O47    Ag7       2.39395      .   S
    O45    Ag0       2.39232      .   S
    S30    Ag6       2.68135      .   S
    S28    Ag5       2.68021      .   S
    Ag6    Ag5       2.92423      .   S
    Ag6    O35       2.39310      .   S
    Ag6    O32       2.26977      .   S
    Ag5    O33       2.39279      .   S
    Ag5    O34       2.27139      .   S
    Ag7    Ag0       2.92558      .   S
    Ag7    S16       2.68122      .   S
    Ag7    S25       2.52592      .   S
    Ag0    S18       2.68117      .   S
    Ag0    S27       2.52711      .   S
    O35    C9        1.26518      .   S
    O33    C8        1.26536      .   S
    O34    C9        1.26734      .   S
    O32    C8        1.26755      .   S
    C8     Og48      0.50876      .   S
    C9     Og49      0.50821      .   S
    C10    Og50      0.50849      .   S
    C11    Og51      0.50879      .   S
    C12    Og52      0.50875      .   S
    C13    Og53      0.50825      .   S
    C14    Og54      0.50852      .   S
    C15    Og55      0.50854      .   S
    S16    Ts56      0.59636      .   S
    S16    Ts57      0.60557  1_655   S
    S17    Ts58      0.59629      .   S
    S17    Ts59      0.60654      .   S
    S18    Ts60      0.59633      .   S
    S18    Ts61      0.60566      .   S
    S19    Ts62      0.59620      .   S
    S19    Ts63      0.60653      .   S
    S20    Ts64      0.59634      .   S
    S20    Ts65      0.60565      .   S
    S21    Ts66      0.59622      .   S
    S21    Ts67      0.60652      .   S
    S22    Ts68      0.59638      .   S
    S22    Ts69      0.60552  1_545   S
    S23    Ts70      0.59624      .   S
    S23    Ts71      0.60658      .   S
    S24    Ts72      0.59636      .   S
    S24    Ts73      0.60537  1_455   S
    S25    Ts74      0.59629      .   S
    S25    Ts75      0.60656      .   S
    S26    Ts76      0.59632      .   S
    S26    Ts77      0.60563      .   S
    S27    Ts78      0.59621      .   S
    S27    Ts79      0.60653      .   S
    S28    Ts80      0.59635      .   S
    S28    Ts81      0.60566      .   S
    S29    Ts82      0.59621      .   S
    S29    Ts83      0.60653      .   S
    S30    Ts84      0.59637      .   S
    S30    Ts85      0.60551  1_565   S
    S31    Ts86      0.59625      .   S
    S31    Ts87      0.60659      .   S
