# CIF file generated by openbabel 2.4.90, see http://openbabel.sf.net
data_I
_chemical_name_common ''
_cell_length_a 13.144
_cell_length_b 13.126
_cell_length_c 13.66
_cell_angle_alpha 89.933
_cell_angle_beta 89.933
_cell_angle_gamma 89.989
_space_group_name_H-M_alt 'P 1'
_space_group_name_Hall 'P 1'
loop_
    _symmetry_equiv_pos_as_xyz
    x,y,z
loop_
    _atom_site_label
    _atom_site_type_symbol
    _atom_site_fract_x
    _atom_site_fract_y
    _atom_site_fract_z
    _atom_site_occupancy
    N0      N    0.49999   0.49999   0.49998   1.000
    N1      N    0.50001   0.99995   0.99998   1.000
    N2      N    0.99996   0.50000   0.99998   1.000
    N3      N    1.00000   0.99999   0.49999   1.000
    Zr4     Zr   0.25053   0.75021   0.76296   1.000
    O5      O    0.14739   0.64743   0.85558   1.000
    O6      O    0.35336   0.85288   0.85547   1.000
    Zr7     Zr   0.24924   0.74934   0.26293   1.000
    O8      O    0.14670   0.85246   0.35549   1.000
    O9      O    0.35219   0.64655   0.35552   1.000
    Zr10    Zr   0.74944   0.24975   0.23701   1.000
    O11     O    0.64664   0.14706   0.14448   1.000
    O12     O    0.85256   0.35255   0.14438   1.000
    Zr13    Zr   0.75074   0.25065   0.73702   1.000
    O14     O    0.85329   0.14753   0.64446   1.000
    O15     O    0.64779   0.35344   0.64444   1.000
    O16     O    0.64439   0.35982   0.34149   1.000
    O17     O    0.85499   0.13992   0.34155   1.000
    O18     O    0.64058   0.14499   0.84156   1.000
    O19     O    0.86034   0.35574   0.84147   1.000
    O20     O    0.35559   0.64015   0.65847   1.000
    O21     O    0.14500   0.86006   0.65842   1.000
    O22     O    0.35942   0.85495   0.15840   1.000
    O23     O    0.13961   0.64425   0.15849   1.000
loop_
    _geom_bond_atom_site_label_1
    _geom_bond_atom_site_label_2
    _geom_bond_distance
    _geom_bond_site_symmetry_2
    _ccdc_geom_bond_type
    Zr4    O5        2.29159      .   S
    N2     O5        3.37265  1_655   S
    Zr4    O6        2.29098      .   S
    N1     O6        3.37021      .   S
    Zr7    O8        2.29060      .   S
    N3     O8        3.37085  1_655   S
    Zr7    O9        2.29134      .   S
    N0     O9        3.37149      .   S
    Zr10   O11       2.29110      .   S
    N1     O11       3.37021  1_566   S
    Zr10   O12       2.29151      .   S
    N2     O12       3.37251  1_556   S
    Zr13   O14       2.29064      .   S
    N3     O14       3.37069  1_565   S
    Zr13   O15       2.29138      .   S
    N0     O15       3.37153      .   S
    Zr10   O16       2.45579      .   S
    N0     O16       3.41649      .   S
    Zr10   O17       2.45793      .   S
    N3     O17       3.41895  1_565   S
    Zr13   O18       2.45968      .   S
    N1     O18       3.42106  1_565   S
    Zr13   O19       2.45433      .   S
    N2     O19       3.41501      .   S
    Zr4    O20       2.45576      .   S
    N0     O20       3.41648      .   S
    Zr4    O21       2.45786      .   S
    N3     O21       3.41887  1_655   S
    N1     O22       3.42093  1_556   S
    Zr7    O22       2.45955      .   S
    N2     O23       3.41515  1_656   S
    Zr7    O23       2.45450      .   S
