# CIF file generated by openbabel 2.4.90, see http://openbabel.sf.net
data_I
_chemical_name_common ''
_cell_length_a 13.926
_cell_length_b 15.054
_cell_length_c 15.041
_cell_angle_alpha 117.175
_cell_angle_beta 96.398
_cell_angle_gamma 96.64
_space_group_name_H-M_alt 'P 1'
_space_group_name_Hall 'P 1'
loop_
    _symmetry_equiv_pos_as_xyz
    x,y,z
loop_
    _atom_site_label
    _atom_site_type_symbol
    _atom_site_fract_x
    _atom_site_fract_y
    _atom_site_fract_z
    _atom_site_occupancy
    Zn0     Zn   0.35465   0.66500   0.37232   1.000
    Zn1     Zn   0.85463   0.37262   0.66460   1.000
    Zn2     Zn   0.64538   0.33502   0.62767   1.000
    Zn3     Zn   0.14540   0.62739   0.33536   1.000
loop_
    _geom_bond_atom_site_label_1
    _geom_bond_atom_site_label_2
    _geom_bond_distance
    _geom_bond_site_symmetry_2
    _ccdc_geom_bond_type
    Zn3    Zn0       2.84437      .   S
    Zn1    Zn2       2.84439      .   S
