# CIF file generated by openbabel 2.4.90, see http://openbabel.sf.net
data_I
_chemical_name_common ''
_cell_length_a 13.926
_cell_length_b 15.054
_cell_length_c 15.041
_cell_angle_alpha 117.175
_cell_angle_beta 96.398
_cell_angle_gamma 96.64
_space_group_name_H-M_alt 'P 1'
_space_group_name_Hall 'P 1'
loop_
    _symmetry_equiv_pos_as_xyz
    x,y,z
loop_
    _atom_site_label
    _atom_site_type_symbol
    _atom_site_fract_x
    _atom_site_fract_y
    _atom_site_fract_z
    _atom_site_occupancy
    N0      N    0.24997   0.35339   0.64678   1.000
    N1      N    0.74976   0.64663   0.35320   1.000
    N2      N    0.24443   0.64073   0.85150   1.000
    N3      N    0.25550   0.14843   0.35910   1.000
    N4      N    0.74452   0.85159   0.64089   1.000
    N5      N    0.75559   0.35930   0.14849   1.000
    Zr6     Zr   0.25002   0.64620   0.35384   1.000
    O7      O    0.08044   0.64170   0.34912   1.000
    O8      O    0.41949   0.65093   0.35819   1.000
    Zr9     Zr   0.75000   0.35382   0.64613   1.000
    O10     O    0.58047   0.34909   0.64179   1.000
    O11     O    0.91952   0.35831   0.65086   1.000
    O12     O    0.74932   0.35097   0.50284   1.000
    O13     O    0.75345   0.35972   0.79055   1.000
    O14     O    0.74659   0.20951   0.64051   1.000
    O15     O    0.75071   0.49709   0.64885   1.000
    O16     O    0.25344   0.79050   0.35947   1.000
    O17     O    0.24931   0.50293   0.35113   1.000
    O18     O    0.24657   0.64030   0.20944   1.000
    O19     O    0.25070   0.64905   0.49714   1.000
loop_
    _geom_bond_atom_site_label_1
    _geom_bond_atom_site_label_2
    _geom_bond_distance
    _geom_bond_site_symmetry_2
    _ccdc_geom_bond_type
    Zr6    O7        2.34697      .   S
    N1     O7        4.62095  1_655   S
    Zr6    O8        2.34543      .   S
    N1     O8        4.61582      .   S
    Zr9    O10       2.34646      .   S
    N0     O10       4.61886      .   S
    Zr9    O11       2.34595      .   S
    N0     O11       4.61790  1_455   S
    Zr9    O12       2.13493      .   S
    N5     O12       5.39831      .   S
    Zr9    O13       2.12782      .   S
    N5     O13       5.38354  1_554   S
    Zr9    O14       2.12982      .   S
    N4     O14       5.38749  1_565   S
    Zr9    O15       2.13721      .   S
    N4     O15       5.40282      .   S
    Zr6    O16       2.12979      .   S
    N3     O16       5.38745  1_545   S
    Zr6    O17       2.13724      .   S
    N3     O17       5.40286      .   S
    Zr6    O18       2.12774      .   S
    N2     O18       5.38343  1_556   S
    Zr6    O19       2.13500      .   S
    N2     O19       5.39843      .   S
