# CIF file generated by openbabel 2.4.90, see http://openbabel.sf.net
data_I
_chemical_name_common ''
_cell_length_a 13.926
_cell_length_b 15.054
_cell_length_c 15.041
_cell_angle_alpha 117.175
_cell_angle_beta 96.398
_cell_angle_gamma 96.64
_space_group_name_H-M_alt 'P 1'
_space_group_name_Hall 'P 1'
loop_
    _symmetry_equiv_pos_as_xyz
    x,y,z
loop_
    _atom_site_label
    _atom_site_type_symbol
    _atom_site_fract_x
    _atom_site_fract_y
    _atom_site_fract_z
    _atom_site_occupancy
    N0      N    0.24997   0.35339   0.64678   1.000
    N1      N    0.74976   0.64663   0.35320   1.000
    N2      N    0.24443   0.64073   0.85150   1.000
    N3      N    0.25550   0.14843   0.35910   1.000
    N4      N    0.74452   0.85159   0.64089   1.000
    N5      N    0.75559   0.35930   0.14849   1.000
    Zr6     Zr   0.25002   0.64620   0.35384   1.000
    O7      O    0.08044   0.64170   0.34912   1.000
    O8      O    0.22586   0.49842   0.34797   1.000
    O9      O    0.22995   0.78615   0.35415   1.000
    O10     O    0.22725   0.64583   0.49269   1.000
    O11     O    0.22308   0.63494   0.20516   1.000
    O12     O    0.27276   0.50745   0.35429   1.000
    O13     O    0.27693   0.79486   0.36478   1.000
    O14     O    0.27415   0.65227   0.50159   1.000
    O15     O    0.41949   0.65093   0.35819   1.000
    O16     O    0.27007   0.64566   0.21371   1.000
    Zr17    Zr   0.75000   0.35382   0.64613   1.000
    O18     O    0.58047   0.34909   0.64179   1.000
    O19     O    0.72726   0.49257   0.64569   1.000
    O20     O    0.72310   0.20516   0.63520   1.000
    O21     O    0.72587   0.34775   0.49840   1.000
    O22     O    0.72996   0.35436   0.78627   1.000
    O23     O    0.91952   0.35831   0.65086   1.000
    O24     O    0.77417   0.50160   0.65201   1.000
    O25     O    0.77008   0.21387   0.64583   1.000
    O26     O    0.77278   0.35419   0.50729   1.000
    O27     O    0.77694   0.36508   0.79482   1.000
loop_
    _geom_bond_atom_site_label_1
    _geom_bond_atom_site_label_2
    _geom_bond_distance
    _geom_bond_site_symmetry_2
    _ccdc_geom_bond_type
    Zr6    O7        2.34697      .   S
    N1     O7        4.62095  1_655   S
    Zr6    O8        2.17048      .   S
    N3     O8        5.40848      .   S
    Zr6    O9        2.15507      .   S
    N3     O9        5.38982  1_545   S
    Zr6    O10       2.14939      .   S
    N2     O10       5.41153      .   S
    Zr6    O11       2.14998      .   S
    N2     O11       5.40022  1_556   S
    Zr6    O12       2.15142      .   S
    N3     O12       5.41611      .   S
    Zr6    O13       2.15219      .   S
    N3     O13       5.40402  1_545   S
    Zr6    O14       2.16809      .   S
    N2     O14       5.40420      .   S
    Zr6    O15       2.34543      .   S
    N1     O15       4.61582      .   S
    Zr6    O16       2.15323      .   S
    N2     O16       5.38558  1_556   S
    Zr17   O18       2.34646      .   S
    N0     O18       4.61886      .   S
    Zr17   O19       2.15138      .   S
    N4     O19       5.41608      .   S
    Zr17   O20       2.15223      .   S
    N4     O20       5.40404  1_565   S
    Zr17   O21       2.16799      .   S
    N5     O21       5.40411      .   S
    Zr17   O22       2.15334      .   S
    N5     O22       5.38567  1_554   S
    Zr17   O23       2.34595      .   S
    N0     O23       4.61790  1_455   S
    Zr17   O24       2.17046      .   S
    N4     O24       5.40843      .   S
    Zr17   O25       2.15509      .   S
    N4     O25       5.38987  1_565   S
    Zr17   O26       2.14933      .   S
    N5     O26       5.41139      .   S
    Zr17   O27       2.15004      .   S
    N5     O27       5.40036  1_554   S
