# CIF file generated by openbabel 2.4.90, see http://openbabel.sf.net
data_I
_chemical_name_common ''
_cell_length_a 13.968
_cell_length_b 15.512
_cell_length_c 19.523
_cell_angle_alpha 90
_cell_angle_beta 102.061
_cell_angle_gamma 90
_space_group_name_H-M_alt 'P 1'
_space_group_name_Hall 'P 1'
loop_
    _symmetry_equiv_pos_as_xyz
    x,y,z
loop_
    _atom_site_label
    _atom_site_type_symbol
    _atom_site_fract_x
    _atom_site_fract_y
    _atom_site_fract_z
    _atom_site_occupancy
    C0      C    0.83104   0.83431   0.97705   1.000
    C1      C    0.66935   0.83431   0.02292   1.000
    C2      C    0.66934   0.66568   0.02291   1.000
    C3      C    0.83104   0.66568   0.97700   1.000
    N4      N    0.88184   0.88911   0.96308   1.000
    N5      N    0.61831   0.88907   0.03666   1.000
    N6      N    0.61831   0.61093   0.03666   1.000
    N7      N    0.88183   0.61087   0.96308   1.000
loop_
    _geom_bond_atom_site_label_1
    _geom_bond_atom_site_label_2
    _geom_bond_distance
    _geom_bond_site_symmetry_2
    _ccdc_geom_bond_type
    C2     N6        1.17538      .   S
    C1     N5        1.17537      .   S
    N7     C3        1.17494      .   S
    N4     C0        1.17531      .   S
