# CIF file generated by openbabel 2.4.90, see http://openbabel.sf.net
data_I
_chemical_name_common ''
_cell_length_a 13.968
_cell_length_b 15.512
_cell_length_c 19.523
_cell_angle_alpha 90
_cell_angle_beta 102.061
_cell_angle_gamma 90
_space_group_name_H-M_alt 'P 1'
_space_group_name_Hall 'P 1'
loop_
    _symmetry_equiv_pos_as_xyz
    x,y,z
loop_
    _atom_site_label
    _atom_site_type_symbol
    _atom_site_fract_x
    _atom_site_fract_y
    _atom_site_fract_z
    _atom_site_occupancy
    H0      H    0.00610   0.05285   0.13725   1.000
    H1      H    0.00610   0.05284   0.63724   1.000
    H2      H    0.00609   0.55285   0.13724   1.000
    H3      H    0.00609   0.55285   0.63724   1.000
    H4      H    0.50623   0.05285   0.13728   1.000
    H5      H    0.50623   0.05285   0.63727   1.000
    H6      H    0.50623   0.55285   0.13728   1.000
    H7      H    0.50623   0.55284   0.63727   1.000
    H8      H    0.32979   0.05660   0.09734   1.000
    H9      H    0.32979   0.05659   0.59733   1.000
    H10     H    0.32979   0.55660   0.09734   1.000
    H11     H    0.32979   0.55659   0.59734   1.000
    H12     H    0.82964   0.05659   0.09737   1.000
    H13     H    0.82965   0.05659   0.59736   1.000
    H14     H    0.82964   0.55659   0.09737   1.000
    H15     H    0.82964   0.55659   0.59736   1.000
    H16     H    0.39817   0.05699   0.22766   1.000
    H17     H    0.39817   0.05698   0.72765   1.000
    H18     H    0.39817   0.55698   0.22766   1.000
    H19     H    0.39817   0.55698   0.72765   1.000
    H20     H    0.89808   0.05698   0.22768   1.000
    H21     H    0.89808   0.05698   0.72767   1.000
    H22     H    0.89807   0.55698   0.22768   1.000
    H23     H    0.89807   0.55698   0.72767   1.000
    H24     H    0.21536   0.05671   0.18458   1.000
    H25     H    0.21536   0.05671   0.68458   1.000
    H26     H    0.21536   0.55671   0.18450   1.000
    H27     H    0.21536   0.55671   0.68458   1.000
    H28     H    0.71527   0.05671   0.18460   1.000
    H29     H    0.71527   0.05671   0.68462   1.000
    H30     H    0.71526   0.55671   0.18463   1.000
    H31     H    0.71526   0.55671   0.68462   1.000
    H32     H    0.49374   0.05285   0.36269   1.000
    H33     H    0.49374   0.05284   0.86269   1.000
    H34     H    0.49373   0.55284   0.36269   1.000
    H35     H    0.49374   0.55284   0.86268   1.000
    H36     H    0.99386   0.05285   0.36270   1.000
    H37     H    0.99387   0.05284   0.86270   1.000
    H38     H    0.99386   0.55285   0.36271   1.000
    H39     H    0.99386   0.55284   0.86271   1.000
    H40     H    0.17031   0.05659   0.40262   1.000
    H41     H    0.17032   0.05659   0.90261   1.000
    H42     H    0.17031   0.55660   0.40262   1.000
    H43     H    0.17031   0.55658   0.90261   1.000
    H44     H    0.67017   0.05659   0.40265   1.000
    H45     H    0.67018   0.05659   0.90264   1.000
    H46     H    0.67017   0.55659   0.40265   1.000
    H47     H    0.67018   0.55659   0.90264   1.000
    H48     H    0.10190   0.05698   0.27230   1.000
    H49     H    0.10190   0.05698   0.77229   1.000
    H50     H    0.10190   0.55698   0.27230   1.000
    H51     H    0.10190   0.55697   0.77230   1.000
    H52     H    0.60181   0.05698   0.27233   1.000
    H53     H    0.60181   0.05698   0.77232   1.000
    H54     H    0.60180   0.55698   0.27233   1.000
    H55     H    0.60180   0.55698   0.77232   1.000
    H56     H    0.28471   0.05672   0.31536   1.000
    H57     H    0.28471   0.05671   0.81535   1.000
    H58     H    0.28471   0.55672   0.31536   1.000
    H59     H    0.28471   0.55671   0.81536   1.000
    H60     H    0.78462   0.05671   0.31540   1.000
    H61     H    0.78462   0.05671   0.81540   1.000
    H62     H    0.78461   0.55671   0.31540   1.000
    H63     H    0.78461   0.55671   0.81540   1.000
    H64     H    0.49374   0.44714   0.36269   1.000
    H65     H    0.49374   0.44714   0.86269   1.000
    H66     H    0.49374   0.94715   0.36269   1.000
    H67     H    0.49374   0.94714   0.86268   1.000
    H68     H    0.99386   0.44715   0.36272   1.000
    H69     H    0.99386   0.44714   0.86271   1.000
    H70     H    0.99386   0.94714   0.36271   1.000
    H71     H    0.99387   0.94714   0.86271   1.000
    H72     H    0.17031   0.44341   0.40262   1.000
    H73     H    0.17031   0.44339   0.90261   1.000
    H74     H    0.17031   0.94340   0.40261   1.000
    H75     H    0.17031   0.94339   0.90261   1.000
    H76     H    0.67017   0.44340   0.40265   1.000
    H77     H    0.67018   0.44340   0.90264   1.000
    H78     H    0.67017   0.94340   0.40265   1.000
    H79     H    0.67018   0.94340   0.90264   1.000
    H80     H    0.10190   0.44301   0.27231   1.000
    H81     H    0.10190   0.44301   0.77200   1.000
    H82     H    0.10190   0.94301   0.27230   1.000
    H83     H    0.10190   0.94301   0.77229   1.000
    C84     C    0.75357   0.49999   0.71145   1.000
    C85     C    0.13312   1.00000   0.37550   1.000
    C86     C    0.13312   0.99999   0.87549   1.000
    C87     C    0.13312   0.50000   0.37550   1.000
    H88     H    0.60180   0.44301   0.27233   1.000
    H89     H    0.60180   0.44301   0.77232   1.000
    H90     H    0.60180   0.94301   0.27233   1.000
    H91     H    0.60181   0.94301   0.77232   1.000
    H92     H    0.28471   0.44328   0.31536   1.000
    H93     H    0.28471   0.44328   0.81536   1.000
    H94     H    0.28471   0.94328   0.31536   1.000
    H95     H    0.28471   0.94327   0.81535   1.000
    H96     H    0.78461   0.44328   0.31540   1.000
    H97     H    0.78462   0.44328   0.81540   1.000
    H98     H    0.78462   0.94328   0.31540   1.000
    H99     H    0.78462   0.94328   0.81540   1.000
    H100    H    0.00609   0.44714   0.13725   1.000
    H101    H    0.00609   0.44714   0.63724   1.000
    H102    H    0.00610   0.94714   0.13724   1.000
    H103    H    0.00609   0.94714   0.63724   1.000
    H104    H    0.50622   0.44715   0.13728   1.000
    H105    H    0.50623   0.44714   0.63727   1.000
    H106    H    0.50623   0.94715   0.13728   1.000
    H107    H    0.50623   0.94714   0.63727   1.000
    H108    H    0.32979   0.44341   0.09734   1.000
    H109    H    0.32979   0.44340   0.59734   1.000
    H110    H    0.32979   0.94340   0.09734   1.000
    H111    H    0.32979   0.94340   0.59733   1.000
    H112    H    0.82964   0.44340   0.09737   1.000
    H113    H    0.82964   0.44340   0.59736   1.000
    H114    H    0.82964   0.94340   0.09737   1.000
    H115    H    0.82964   0.94340   0.59736   1.000
    N116    N    0.46891   0.00000   0.11379   1.000
    N117    N    0.46891   1.00000   0.61370   1.000
    N118    N    0.46891   0.50000   0.11379   1.000
    N119    N    0.46891   0.49999   0.61379   1.000
    N120    N    0.96876   0.00000   0.11378   1.000
    H121    H    0.39817   0.44302   0.22766   1.000
    H122    H    0.39817   0.44301   0.72765   1.000
    H123    H    0.39817   0.94301   0.22766   1.000
    H124    H    0.39817   0.94301   0.72765   1.000
    H125    H    0.89807   0.44301   0.22768   1.000
    H126    H    0.89808   0.44301   0.72767   1.000
    H127    H    0.89808   0.94301   0.22768   1.000
    H128    H    0.89808   0.94301   0.72767   1.000
    H129    H    0.21536   0.44329   0.18450   1.000
    H130    H    0.21536   0.44328   0.68458   1.000
    H131    H    0.21536   0.94329   0.18458   1.000
    H132    H    0.21536   0.94328   0.68450   1.000
    H133    H    0.71526   0.44328   0.18463   1.000
    H134    H    0.71527   0.44327   0.68462   1.000
    H135    H    0.71527   0.94328   0.18460   1.000
    H136    H    0.71526   0.94328   0.68462   1.000
    C137    C    0.33051   0.33431   0.47705   1.000
    C138    C    0.33054   0.33431   0.97705   1.000
    C139    C    0.33052   0.83431   0.47700   1.000
    C140    C    0.33052   0.83430   0.97704   1.000
    C141    C    0.83104   0.33431   0.47706   1.000
    C142    C    0.83102   0.33431   0.97705   1.000
    C143    C    0.83101   0.83431   0.47706   1.000
    C144    C    0.16884   0.33431   0.02289   1.000
    C145    C    0.16881   0.33431   0.52288   1.000
    C146    C    0.16882   0.83432   0.02289   1.000
    C147    C    0.16884   0.83432   0.52289   1.000
    C148    C    0.66933   0.33432   0.02291   1.000
    C149    C    0.66936   0.33431   0.52291   1.000
    C150    C    0.66932   0.83431   0.52290   1.000
    C151    C    0.16884   0.16568   0.02289   1.000
    C152    C    0.16883   0.16568   0.52289   1.000
    C153    C    0.16881   0.66568   0.02289   1.000
    C154    C    0.16883   0.66568   0.52289   1.000
    C155    C    0.66934   0.16568   0.02292   1.000
    C156    C    0.66936   0.16568   0.52291   1.000
    C157    C    0.66932   0.66568   0.52291   1.000
    C158    C    0.33052   0.16569   0.47705   1.000
    C159    C    0.33054   0.16568   0.97704   1.000
    C160    C    0.33052   0.66568   0.47705   1.000
    C161    C    0.33052   0.66568   0.97704   1.000
    C162    C    0.83104   0.16568   0.47706   1.000
    C163    C    0.83103   0.16568   0.97700   1.000
    C164    C    0.83100   0.66568   0.47706   1.000
    C165    C    0.36697   0.00000   0.12446   1.000
    C166    C    0.36697   1.00000   0.62446   1.000
    C167    C    0.36696   0.50000   0.12447   1.000
    C168    C    0.36697   0.49999   0.62446   1.000
    C169    C    0.86684   1.00000   0.12448   1.000
    C170    C    0.86684   0.99999   0.62448   1.000
    C171    C    0.86684   0.50000   0.12448   1.000
    C172    C    0.86684   0.49999   0.62448   1.000
    C173    C    0.35944   0.00000   0.20138   1.000
    C174    C    0.35945   0.99999   0.70137   1.000
    C175    C    0.35944   0.50000   0.20138   1.000
    C176    C    0.35945   0.49999   0.70137   1.000
    C177    C    0.85934   1.00000   0.20140   1.000
    C178    C    0.85934   0.99999   0.70140   1.000
    C179    C    0.85934   0.50000   0.20140   1.000
    C180    C    0.85934   0.49999   0.70140   1.000
    C181    C    0.25366   0.00000   0.21141   1.000
    C182    C    0.25367   0.99999   0.71140   1.000
    C183    C    0.25366   0.50000   0.21141   1.000
    C184    C    0.25366   0.49999   0.71141   1.000
    C185    C    0.75357   1.00000   0.21145   1.000
    C186    C    0.75357   0.99999   0.71140   1.000
    C187    C    0.75357   0.50000   0.21145   1.000
    C188    C    0.13312   0.49999   0.87549   1.000
    C189    C    0.63300   1.00000   0.37552   1.000
    C190    C    0.63300   0.99999   0.87552   1.000
    C191    C    0.63299   0.50000   0.37552   1.000
    C192    C    0.63300   0.50000   0.87552   1.000
    C193    C    0.14063   1.00000   0.29858   1.000
    C194    C    0.14063   0.99999   0.79857   1.000
    C195    C    0.14063   0.50000   0.29858   1.000
    C196    C    0.14063   0.49999   0.79857   1.000
    C197    C    0.64053   1.00000   0.29861   1.000
    C198    C    0.64053   0.99999   0.79860   1.000
    C199    C    0.64053   0.50000   0.29861   1.000
    C200    C    0.64053   0.49999   0.79860   1.000
    C201    C    0.24641   0.00000   0.28850   1.000
    C202    C    0.24641   0.99999   0.78853   1.000
    C203    C    0.24640   0.50000   0.28854   1.000
    C204    C    0.24641   0.49999   0.78853   1.000
    C205    C    0.74631   1.00000   0.28858   1.000
    C206    C    0.74631   0.99999   0.78857   1.000
    C207    C    0.74631   0.50000   0.28858   1.000
    C208    C    0.74631   0.49999   0.78857   1.000
    N209    N    0.38158   0.38905   0.46333   1.000
    N210    N    0.38160   0.38906   0.96330   1.000
    N211    N    0.38159   0.88905   0.46333   1.000
    N212    N    0.38160   0.88905   0.96333   1.000
    N213    N    0.88183   0.38912   0.46308   1.000
    N214    N    0.88183   0.38910   0.96308   1.000
    N215    N    0.88182   0.88910   0.46310   1.000
    N216    N    0.11806   0.38912   0.03688   1.000
    N217    N    0.11806   0.38913   0.53688   1.000
    N218    N    0.11806   0.88913   0.03689   1.000
    N219    N    0.11807   0.88912   0.53688   1.000
    N220    N    0.61831   0.38907   0.03666   1.000
    N221    N    0.61832   0.38906   0.53660   1.000
    N222    N    0.61830   0.88907   0.53660   1.000
    N223    N    0.11807   0.11087   0.03688   1.000
    N224    N    0.11806   0.11086   0.53688   1.000
    N225    N    0.11805   0.61087   0.03688   1.000
    N226    N    0.11806   0.61088   0.53688   1.000
    N227    N    0.61831   0.11092   0.03666   1.000
    N228    N    0.61832   0.11093   0.53660   1.000
    N229    N    0.61830   0.61092   0.53665   1.000
    N230    N    0.38159   0.11094   0.46333   1.000
    N231    N    0.38161   0.11093   0.96330   1.000
    N232    N    0.38158   0.61093   0.46333   1.000
    N233    N    0.38159   0.61094   0.96333   1.000
    N234    N    0.88183   0.11088   0.46309   1.000
    N235    N    0.88183   0.11088   0.96309   1.000
    N236    N    0.88181   0.61089   0.46309   1.000
    N237    N    0.96876   0.99999   0.61370   1.000
    N238    N    0.96875   0.49999   0.11378   1.000
    N239    N    0.96875   0.50000   0.61377   1.000
    N240    N    0.03119   0.99999   0.38619   1.000
    N241    N    0.03120   0.99999   0.88618   1.000
    N242    N    0.03119   0.50000   0.38619   1.000
    N243    N    0.03119   0.49999   0.88618   1.000
    N244    N    0.53104   1.00000   0.38618   1.000
    N245    N    0.53105   0.99999   0.88618   1.000
    N246    N    0.53104   0.49999   0.38618   1.000
    N247    N    0.53105   0.50000   0.88618   1.000
loop_
    _geom_bond_atom_site_label_1
    _geom_bond_atom_site_label_2
    _geom_bond_distance
    _geom_bond_site_symmetry_2
    _ccdc_geom_bond_type
    C153   N225      1.17526      .   S
    C144   N216      1.17533      .   S
    C151   N223      1.17533      .   S
    C146   N218      1.17533      .   S
    C148   N220      1.17536      .   S
    C155   N227      1.17535      .   S
    H110   C165      1.09813  1_565   S
    H8     C165      1.09811      .   S
    H10    C167      1.09818      .   S
    H108   C167      1.09818      .   S
    H12    C169      1.09811  1_545   S
    H14    C171      1.09810      .   S
    H112   C171      1.09813      .   S
    H114   C169      1.09813      .   S
    N120   C169      1.48139  1_545   S
    N120   H102      1.02675  1_645   S
    N120   H0        1.02675  1_655   S
    N238   C171      1.48139      .   S
    N238   H2        1.02672  1_655   S
    N238   H100      1.02675  1_655   S
    N116   C165      1.48157      .   S
    N116   H4        1.02677      .   S
    N116   H106      1.02674  1_545   S
    N118   C167      1.48163      .   S
    N118   H6        1.02673      .   S
    N118   H104      1.02675      .   S
    C165   C173      1.52713      .   S
    C167   C175      1.52694      .   S
    C169   C177      1.52702      .   S
    C171   C179      1.52703      .   S
    H26    C183      1.10397      .   S
    H129   C183      1.10397      .   S
    H24    C181      1.10338      .   S
    H131   C181      1.10339  1_565   S
    H28    C185      1.10355  1_545   S
    H135   C185      1.10357      .   S
    H30    C187      1.10333      .   S
    H133   C187      1.10335      .   S
    C175   C183      1.53048      .   S
    C175   H18       1.10509      .   S
    C175   H121      1.10511      .   S
    C173   C181      1.53049      .   S
    C173   H16       1.10510      .   S
    C173   H123      1.10513  1_545   S
    C177   C185      1.53052      .   S
    C177   H20       1.10513  1_565   S
    C177   H127      1.10515      .   S
    C179   C187      1.53051      .   S
    C179   H22       1.10514      .   S
    C179   H125      1.10513      .   S
    C181   C201      1.52942      .   S
    C183   C203      1.53020      .   S
    C187   C207      1.53020      .   S
    C185   C205      1.53020      .   S
    H82    C193      1.10514      .   S
    H50    C195      1.10510      .   S
    H48    C193      1.10512  1_545   S
    H80    C195      1.10505      .   S
    H52    C197      1.10509  1_545   S
    H88    C199      1.10509      .   S
    H90    C197      1.10511      .   S
    H54    C199      1.10510      .   S
    C201   C193      1.53075  1_545   S
    C201   H56       1.10361      .   S
    C201   H94       1.10365  1_545   S
    C203   C195      1.53049      .   S
    C203   H58       1.10334      .   S
    C203   H92       1.10333      .   S
    C205   C197      1.53051      .   S
    C205   H98       1.10333      .   S
    C205   H60       1.10331  1_565   S
    C207   C199      1.53051      .   S
    C207   H62       1.10332      .   S
    C207   H96       1.10331      .   S
    C195   C87       1.52708      .   S
    C193   C85       1.52707      .   S
    C199   C191      1.52697      .   S
    C197   C189      1.52697      .   S
    H32    N244      1.02668  1_545   S
    H34    N246      1.02668      .   S
    H66    N244      1.02671      .   S
    H64    N246      1.02669      .   S
    H36    N240      1.02686  1_645   S
    H38    N242      1.02676  1_655   S
    H70    N240      1.02679  1_655   S
    H68    N242      1.02673  1_655   S
    C85    N240      1.48145      .   S
    C85    H74       1.09811      .   S
    C85    H40       1.09815  1_565   S
    C87    N242      1.48145      .   S
    C87    H72       1.09814      .   S
    C87    H42       1.09817      .   S
    C191   N246      1.48160      .   S
    C191   H46       1.09816      .   S
    C191   H76       1.09816      .   S
    C189   N244      1.48160      .   S
    C189   H78       1.09819      .   S
    C189   H44       1.09817  1_565   S
    N213   C141      1.17534      .   S
    N236   C164      1.17535      .   S
    N234   C162      1.17525      .   S
    N215   C143      1.17530      .   S
    N209   C137      1.17537      .   S
    N211   C139      1.17504      .   S
    N232   C160      1.17537      .   S
    N230   C158      1.17536      .   S
    C145   N217      1.17530      .   S
    C147   N219      1.17527      .   S
    C152   N224      1.17530      .   S
    C154   N226      1.17526      .   S
    C150   N222      1.17499      .   S
    C149   N221      1.17499      .   S
    C157   N229      1.17532      .   S
    C156   N228      1.17504      .   S
    H9     C166      1.09818  1_545   S
    H111   C166      1.09820      .   S
    H11    C168      1.09810      .   S
    H109   C168      1.09809      .   S
    H115   C170      1.09821      .   S
    H13    C170      1.09817  1_545   S
    H15    C172      1.09817      .   S
    H113   C172      1.09819      .   S
    N117   C166      1.48215      .   S
    N117   H5        1.02725  1_565   S
    N117   H107      1.02732      .   S
    N237   C170      1.48193      .   S
    N237   H1        1.02724  1_665   S
    N237   H103      1.02726  1_655   S
    N239   C172      1.48146      .   S
    N239   H101      1.02678  1_655   S
    N239   H3        1.02676  1_655   S
    N119   C168      1.48155      .   S
    N119   H7        1.02667      .   S
    N119   H105      1.02667      .   S
    C166   C174      1.52694      .   S
    C168   C176      1.52694      .   S
    C170   C178      1.52703      .   S
    C172   C180      1.52702      .   S
    H132   C182      1.10391      .   S
    H130   C184      1.10339      .   S
    H25    C182      1.10331  1_545   S
    H27    C184      1.10338      .   S
    H31    C84       1.10339      .   S
    H136   C186      1.10306      .   S
    H29    C186      1.10305  1_545   S
    H134   C84       1.10342      .   S
    C176   C184      1.53056      .   S
    C176   H19       1.10510      .   S
    C176   H122      1.10510      .   S
    C174   C182      1.53048      .   S
    C174   H124      1.10513      .   S
    C174   H17       1.10509  1_565   S
    C178   C186      1.53020      .   S
    C178   H21       1.10506  1_565   S
    C178   H128      1.10509      .   S
    C180   C84       1.53052      .   S
    C180   H23       1.10505      .   S
    C180   H126      1.10506      .   S
    C182   C202      1.53020      .   S
    C186   C206      1.53097      .   S
    C184   C204      1.53001      .   S
    C84    C208      1.52999      .   S
    H81    C196      1.10717      .   S
    H49    C194      1.10511  1_545   S
    H83    C194      1.10514      .   S
    H51    C196      1.10505      .   S
    H53    C198      1.10510  1_545   S
    H91    C198      1.10511      .   S
    H55    C200      1.10507      .   S
    H89    C200      1.10510      .   S
    C202   C194      1.53049      .   S
    C202   H57       1.10333  1_565   S
    C202   H95       1.10337      .   S
    C204   C196      1.53049      .   S
    C204   H93       1.10340      .   S
    C204   H59       1.10341      .   S
    C206   C198      1.53049      .   S
    C206   H99       1.10341      .   S
    C206   H61       1.10339  1_565   S
    C208   C200      1.53051      .   S
    C208   H63       1.10339      .   S
    C208   H97       1.10338      .   S
    C194   C86       1.52707      .   S
    C196   C188      1.52708      .   S
    C198   C190      1.52716      .   S
    C200   C192      1.52716      .   S
    H67    N245      1.02676      .   S
    H35    N247      1.02674      .   S
    H65    N247      1.02671      .   S
    H33    N245      1.02671  1_545   S
    H37    N241      1.02677  1_645   S
    H69    N243      1.02671  1_655   S
    H71    N241      1.02676  1_655   S
    H39    N243      1.02672  1_655   S
    C86    N241      1.48145      .   S
    C86    H75       1.09818      .   S
    C86    H41       1.09817  1_565   S
    C188   N243      1.48145      .   S
    C188   H43       1.09815      .   S
    C188   H73       1.09816      .   S
    C192   N247      1.48158      .   S
    C192   H77       1.09807      .   S
    C192   H47       1.09811      .   S
    C190   N245      1.48158      .   S
    C190   H79       1.09811      .   S
    C190   H45       1.09809  1_565   S
    N214   C142      1.17532      .   S
    N235   C163      1.17492      .   S
    N231   C159      1.17549      .   S
    N210   C138      1.17554      .   S
    N233   C161      1.17531      .   S
    N212   C140      1.17534      .   S
