# CIF file generated by openbabel 2.4.90, see http://openbabel.sf.net
data_I
_chemical_name_common ''
_cell_length_a 13.968
_cell_length_b 15.512
_cell_length_c 19.523
_cell_angle_alpha 90
_cell_angle_beta 102.061
_cell_angle_gamma 90
_space_group_name_H-M_alt 'P 1'
_space_group_name_Hall 'P 1'
loop_
    _symmetry_equiv_pos_as_xyz
    x,y,z
loop_
    _atom_site_label
    _atom_site_type_symbol
    _atom_site_fract_x
    _atom_site_fract_y
    _atom_site_fract_z
    _atom_site_occupancy
    N0      N    0.74993   1.00000   0.25000   1.000
    N1      N    0.74993   0.99999   0.74999   1.000
    N2      N    0.74992   0.50000   0.25000   1.000
    N3      N    0.74993   0.49999   0.74999   1.000
    N4      N    0.25004   1.00000   0.24998   1.000
    N5      N    0.25004   0.99999   0.74997   1.000
    N6      N    0.25004   0.50000   0.24998   1.000
    N7      N    0.25004   0.49999   0.74996   1.000
    N8      N    0.35604   0.36168   0.47019   1.000
    N9      N    0.35607   0.36168   0.97017   1.000
    N10     N    0.35606   0.86168   0.47016   1.000
    N11     N    0.35606   0.86168   0.97018   1.000
    N12     N    0.85643   0.36171   0.47007   1.000
    N13     N    0.85643   0.36171   0.97006   1.000
    N14     N    0.85641   0.86170   0.47008   1.000
    N15     N    0.14345   0.36172   0.02988   1.000
    N16     N    0.14344   0.36172   0.52988   1.000
    N17     N    0.14344   0.86172   0.02989   1.000
    N18     N    0.14345   0.86172   0.52988   1.000
    N19     N    0.64382   0.36169   0.02978   1.000
    N20     N    0.64384   0.36169   0.52975   1.000
    N21     N    0.64381   0.86169   0.52975   1.000
    N22     N    0.14345   0.13828   0.02988   1.000
    N23     N    0.14344   0.13827   0.52988   1.000
    N24     N    0.14343   0.63828   0.02988   1.000
    N25     N    0.14344   0.63828   0.52988   1.000
    N26     N    0.64382   0.13830   0.02979   1.000
    N27     N    0.64384   0.13830   0.52975   1.000
    N28     N    0.64381   0.63830   0.52978   1.000
    N29     N    0.35605   0.13832   0.47019   1.000
    N30     N    0.35607   0.13831   0.97017   1.000
    N31     N    0.35605   0.63830   0.47019   1.000
    N32     N    0.35605   0.63831   0.97018   1.000
    N33     N    0.85644   0.13828   0.47007   1.000
    N34     N    0.85643   0.13828   0.97004   1.000
    N35     N    0.85641   0.63828   0.47007   1.000
    Zr36    Zr   0.49995   0.50001   0.99999   1.000
    O37     O    0.56633   0.50000   0.92326   1.000
    O38     O    0.44919   0.45156   0.98795   1.000
    O39     O    0.44918   0.54845   0.98796   1.000
    O40     O    0.55071   0.45156   0.01202   1.000
    O41     O    0.43359   0.50000   0.07671   1.000
    Zr42    Zr   0.24957   0.25000   0.99989   1.000
    O43     O    0.28632   0.21154   0.98960   1.000
    O44     O    0.28632   0.28846   0.98961   1.000
    O45     O    0.21295   0.21153   0.01026   1.000
    O46     O    0.21295   0.28847   0.01026   1.000
    Zr47    Zr   0.24954   0.25000   0.49980   1.000
    O48     O    0.21293   0.28847   0.51020   1.000
    O49     O    0.21293   0.21153   0.51021   1.000
    O50     O    0.28629   0.21154   0.48955   1.000
    O51     O    0.28629   0.28846   0.48955   1.000
    Zr52    Zr   0.24955   0.74999   0.99987   1.000
    O53     O    0.28630   0.78845   0.98959   1.000
    O54     O    0.28630   0.71153   0.98959   1.000
    O55     O    0.21293   0.78847   0.01025   1.000
    O56     O    0.21293   0.71153   0.01025   1.000
    Zr57    Zr   0.24956   0.75000   0.49988   1.000
    O58     O    0.21294   0.71153   0.51026   1.000
    O59     O    0.21294   0.78847   0.51026   1.000
    O60     O    0.28630   0.71153   0.48960   1.000
    O61     O    0.28630   0.78846   0.48959   1.000
    Zr62    Zr   0.75027   0.24999   0.00000   1.000
    O63     O    0.78690   0.28846   0.98965   1.000
    O64     O    0.78691   0.21153   0.98964   1.000
    O65     O    0.71354   0.28846   0.01031   1.000
    O66     O    0.71354   0.21153   0.01031   1.000
    Zr67    Zr   0.75030   0.25000   0.50006   1.000
    O68     O    0.71356   0.28846   0.51034   1.000
    O69     O    0.71357   0.21153   0.51034   1.000
    O70     O    0.78692   0.28847   0.48969   1.000
    O71     O    0.78692   0.21153   0.48969   1.000
    Zr72    Zr   0.75025   0.75000   0.50005   1.000
    O73     O    0.71352   0.71153   0.51034   1.000
    O74     O    0.71352   0.78846   0.51033   1.000
    O75     O    0.78688   0.78846   0.48968   1.000
    O76     O    0.78688   0.71153   0.48968   1.000
    Zr77    Zr   0.49995   0.49999   0.49998   1.000
    O78     O    0.43359   0.49999   0.57670   1.000
    O79     O    0.55072   0.45155   0.51200   1.000
    O80     O    0.55071   0.54843   0.51201   1.000
    O81     O    0.44918   0.54844   0.48795   1.000
    O82     O    0.56633   0.49999   0.42326   1.000
    O83     O    0.44918   0.45154   0.48795   1.000
    Zr84    Zr   0.99994   0.00000   0.99998   1.000
    O85     O    0.94930   0.04843   0.98788   1.000
    O86     O    0.05058   0.95158   0.01207   1.000
    O87     O    0.05059   0.04843   0.01207   1.000
    O88     O    0.93354   0.00000   0.07671   1.000
    O89     O    0.06638   0.00000   0.92325   1.000
    Zr90    Zr   0.49995   0.00000   0.49998   1.000
    O91     O    0.55072   0.04844   0.51200   1.000
    O92     O    0.44918   0.04845   0.48795   1.000
    O93     O    0.55071   0.95156   0.51200   1.000
    O94     O    0.44918   0.95155   0.48794   1.000
    O95     O    0.56633   0.00000   0.42326   1.000
    O96     O    0.43359   0.00000   0.57669   1.000
    Zr97    Zr   0.99995   0.99999   0.49997   1.000
    O98     O    0.94930   0.95156   0.48789   1.000
    O99     O    0.05059   0.04842   0.51206   1.000
    O100    O    0.05059   0.95156   0.51206   1.000
    O101    O    0.94931   0.04842   0.48789   1.000
    O102    O    0.06638   0.99999   0.42325   1.000
    O103    O    0.93354   0.99999   0.57669   1.000
    Zr104   Zr   0.99994   0.49999   0.99998   1.000
    O105    O    0.06637   0.49999   0.92325   1.000
    O106    O    0.05058   0.45156   0.01207   1.000
    O107    O    0.94930   0.45156   0.98789   1.000
    O108    O    0.05058   0.54842   0.01207   1.000
    O109    O    0.93354   0.49999   0.07671   1.000
    Zr110   Zr   0.99994   0.50000   0.49997   1.000
    O111    O    0.94929   0.54843   0.48789   1.000
    O112    O    0.05058   0.54843   0.51206   1.000
    O113    O    0.05058   0.45157   0.51206   1.000
    O114    O    0.94930   0.45157   0.48788   1.000
    O115    O    0.06637   0.50000   0.42325   1.000
    O116    O    0.93354   0.50000   0.57670   1.000
    Zr117   Zr   0.49995   0.99999   0.99999   1.000
    O118    O    0.44918   0.95155   0.98796   1.000
    O119    O    0.44919   0.04844   0.98795   1.000
    O120    O    0.55071   0.04844   0.01202   1.000
    O121    O    0.56633   0.99999   0.92326   1.000
    O122    O    0.43359   1.00000   0.07671   1.000
loop_
    _geom_bond_atom_site_label_1
    _geom_bond_atom_site_label_2
    _geom_bond_distance
    _geom_bond_site_symmetry_2
    _ccdc_geom_bond_type
    Zr36   O37       1.91935      .   S
    N3     O37       4.65242      .   S
    Zr36   O38       1.02623      .   S
    N9     O38       1.88862      .   S
    Zr36   O39       1.02620      .   S
    N32    O39       1.88859      .   S
    Zr36   O40       1.02618  1_556   S
    N19    O40       1.88851      .   S
    Zr36   O41       1.91905  1_556   S
    N6     O41       4.65186      .   S
    Zr42   O43       0.83835      .   S
    N30    O43       1.59314      .   S
    Zr42   O44       0.83830      .   S
    N9     O44       1.59307      .   S
    Zr42   O45       0.83789  1_556   S
    N22    O45       1.59235      .   S
    Zr42   O46       0.83789  1_556   S
    N15    O46       1.59235      .   S
    Zr47   O48       0.83810      .   S
    N16    O48       1.59269      .   S
    Zr47   O49       0.83810      .   S
    N23    O49       1.59270      .   S
    Zr47   O50       0.83804      .   S
    N29    O50       1.59260      .   S
    Zr47   O51       0.83803      .   S
    N8     O51       1.59259      .   S
    Zr52   O53       0.83824      .   S
    N11    O53       1.59293      .   S
    Zr52   O54       0.83824      .   S
    N32    O54       1.59292      .   S
    Zr52   O55       0.83799  1_556   S
    N17    O55       1.59251      .   S
    Zr52   O56       0.83795  1_556   S
    N24    O56       1.59243      .   S
    Zr57   O58       0.83790      .   S
    N25    O58       1.59235      .   S
    Zr57   O59       0.83789      .   S
    N18    O59       1.59234      .   S
    Zr57   O60       0.83824      .   S
    N31    O60       1.59293      .   S
    Zr57   O61       0.83832      .   S
    N10    O61       1.59302      .   S
    Zr62   O63       0.83782  1_554   S
    N13    O63       1.59223      .   S
    Zr62   O64       0.83791  1_554   S
    N34    O64       1.59231      .   S
    Zr62   O65       0.83841      .   S
    N19    O65       1.59321      .   S
    Zr62   O66       0.83836      .   S
    N26    O66       1.59313      .   S
    Zr67   O68       0.83816      .   S
    N20    O68       1.59274      .   S
    Zr67   O69       0.83815      .   S
    N27    O69       1.59274      .   S
    Zr67   O70       0.83793      .   S
    N12    O70       1.59242      .   S
    Zr67   O71       0.83794      .   S
    N33    O71       1.59241      .   S
    Zr72   O73       0.83818      .   S
    N28    O73       1.59283      .   S
    Zr72   O74       0.83812      .   S
    N21    O74       1.59267      .   S
    Zr72   O75       0.83795      .   S
    N14    O75       1.59244      .   S
    Zr72   O76       0.83795      .   S
    N35    O76       1.59245      .   S
    Zr77   O78       1.91906      .   S
    N7     O78       4.65181      .   S
    Zr77   O79       1.02617      .   S
    N20    O79       1.88854      .   S
    Zr77   O80       1.02615      .   S
    N28    O80       1.88847      .   S
    Zr77   O81       1.02627      .   S
    N31    O81       1.88872      .   S
    Zr77   O82       1.91925      .   S
    N2     O82       4.65223      .   S
    Zr77   O83       1.02624      .   S
    N8     O83       1.88865      .   S
    Zr84   O85       1.02503      .   S
    N34    O85       1.88621      .   S
    Zr84   O86       1.02498  1_646   S
    N17    O86       1.88609      .   S
    Zr84   O87       1.02499  1_656   S
    N22    O87       1.88612      .   S
    Zr84   O88       1.91961  1_556   S
    N0     O88       4.65289  1_565   S
    Zr84   O89       1.91985  1_655   S
    N5     O89       4.65336  1_565   S
    Zr90   O91       1.02617      .   S
    N27    O91       1.88854      .   S
    Zr90   O92       1.02625      .   S
    N29    O92       1.88868      .   S
    Zr90   O93       1.02612  1_545   S
    N21    O93       1.88844      .   S
    Zr90   O94       1.02630  1_545   S
    N10    O94       1.88876      .   S
    Zr90   O95       1.91926      .   S
    N0     O95       4.65225  1_565   S
    Zr90   O96       1.91888      .   S
    N5     O96       4.65203  1_565   S
    Zr97   O98       1.02510      .   S
    N14    O98       1.88635      .   S
    Zr97   O99       1.02498  1_665   S
    N23    O99       1.88609      .   S
    Zr97   O100      1.02497  1_655   S
    N18    O100      1.88607      .   S
    Zr97   O101      1.02506  1_565   S
    N33    O101      1.88625      .   S
    Zr97   O102      1.91968  1_655   S
    N4     O102      4.65308      .   S
    Zr97   O103      1.91947      .   S
    N1     O103      4.65306      .   S
    Zr104  O105      1.91986  1_655   S
    N7     O105      4.65340      .   S
    Zr104  O106      1.02501  1_656   S
    N15    O106      1.88615      .   S
    Zr104  O107      1.02507      .   S
    N13    O107      1.88626      .   S
    Zr104  O108      1.02498  1_656   S
    N24    O108      1.88609      .   S
    Zr104  O109      1.91962  1_556   S
    N2     O109      4.65291      .   S
    Zr110  O111      1.02510      .   S
    N35    O111      1.88633      .   S
    Zr110  O112      1.02497  1_655   S
    N25    O112      1.88607      .   S
    Zr110  O113      1.02499  1_655   S
    N16    O113      1.88610      .   S
    Zr110  O114      1.02506      .   S
    N12    O114      1.88625      .   S
    Zr110  O115      1.91971  1_655   S
    N6     O115      4.65314      .   S
    Zr110  O116      1.91964      .   S
    N3     O116      4.65296      .   S
    Zr117  O118      1.02626      .   S
    N11    O118      1.88870      .   S
    Zr117  O119      1.02620  1_565   S
    N30    O119      1.88857      .   S
    Zr117  O120      1.02616  1_566   S
    N26    O120      1.88850      .   S
    Zr117  O121      1.91937      .   S
    N1     O121      4.65247      .   S
    Zr117  O122      1.91907  1_556   S
    N4     O122      4.65192      .   S
