# CIF file generated by openbabel 2.4.90, see http://openbabel.sf.net
data_I
_chemical_name_common ''
_cell_length_a 15.976
_cell_length_b 19.736
_cell_length_c 13.545
_cell_angle_alpha 109.661
_cell_angle_beta 105.44
_cell_angle_gamma 94.817
_space_group_name_H-M_alt 'P 1'
_space_group_name_Hall 'P 1'
loop_
    _symmetry_equiv_pos_as_xyz
    x,y,z
loop_
    _atom_site_label
    _atom_site_type_symbol
    _atom_site_fract_x
    _atom_site_fract_y
    _atom_site_fract_z
    _atom_site_occupancy
    H0      H    0.03663   0.42535   0.61367   1.000
    H1      H    0.03674   0.92550   0.61364   1.000
    H2      H    0.53663   0.42535   0.61368   1.000
    H3      H    0.53673   0.92551   0.61364   1.000
    H4      H    0.30331   0.42890   0.63743   1.000
    H5      H    0.30356   0.92926   0.63812   1.000
    H6      H    0.80331   0.42890   0.63740   1.000
    H7      H    0.80356   0.92926   0.63812   1.000
    H8      H    0.01554   0.13858   0.63683   1.000
    H9      H    0.01562   0.63840   0.63664   1.000
    H10     H    0.51553   0.13858   0.63684   1.000
    H11     H    0.51561   0.63840   0.63660   1.000
    H12     H    0.27004   0.13027   0.61228   1.000
    H13     H    0.27040   0.63052   0.61292   1.000
    H14     H    0.77003   0.13027   0.61228   1.000
    H15     H    0.77039   0.63052   0.61292   1.000
    H16     H    0.42215   0.02695   0.83630   1.000
    H17     H    0.42206   0.52664   0.83604   1.000
    H18     H    0.92214   0.02695   0.83630   1.000
    H19     H    0.92205   0.52664   0.83600   1.000
    H20     H    0.16013   0.99355   0.03954   1.000
    H21     H    0.16017   0.49371   0.03969   1.000
    H22     H    0.66012   0.99355   0.03955   1.000
    H23     H    0.66017   0.49371   0.03900   1.000
    H24     H    0.49575   0.14121   0.83718   1.000
    H25     H    0.49566   0.64104   0.83749   1.000
    H26     H    0.99574   0.14121   0.83718   1.000
    H27     H    0.99566   0.64104   0.83749   1.000
    H28     H    0.35970   0.27649   0.03879   1.000
    H29     H    0.35961   0.77631   0.03910   1.000
    H30     H    0.85969   0.27649   0.03879   1.000
    H31     H    0.85960   0.77631   0.03910   1.000
    H32     H    0.46327   0.07449   0.38643   1.000
    H33     H    0.46337   0.57464   0.38640   1.000
    H34     H    0.96326   0.07448   0.38642   1.000
    H35     H    0.96336   0.57464   0.38639   1.000
    H36     H    0.19643   0.07072   0.36189   1.000
    H37     H    0.19668   0.57108   0.36257   1.000
    H38     H    0.69642   0.07071   0.36190   1.000
    H39     H    0.69667   0.57107   0.36258   1.000
    H40     H    0.48439   0.36159   0.36344   1.000
    H41     H    0.48447   0.86141   0.36325   1.000
    H42     H    0.98438   0.36159   0.36343   1.000
    H43     H    0.98446   0.86140   0.36320   1.000
    H44     H    0.22960   0.36945   0.38709   1.000
    H45     H    0.22995   0.86971   0.38774   1.000
    H46     H    0.72958   0.36945   0.38708   1.000
    H47     H    0.72994   0.86970   0.38773   1.000
    H48     H    0.07794   0.47335   0.16399   1.000
    H49     H    0.07785   0.97304   0.16373   1.000
    H50     H    0.57793   0.47335   0.16399   1.000
    H51     H    0.57784   0.97304   0.16373   1.000
    H52     H    0.33983   0.50628   0.96034   1.000
    H53     H    0.33987   0.00000   0.96049   1.000
    H54     H    0.83982   0.50628   0.96034   1.000
    H55     H    0.83986   0.00000   0.96000   1.000
    H56     H    0.00435   0.35895   0.16253   1.000
    H57     H    0.00426   0.85878   0.16284   1.000
    H58     H    0.50433   0.35895   0.16252   1.000
    H59     H    0.50425   0.85878   0.16284   1.000
    H60     H    0.14040   0.22368   0.96091   1.000
    H61     H    0.14031   0.72350   0.96123   1.000
    H62     H    0.64039   0.22368   0.96091   1.000
    H63     H    0.64030   0.72350   0.96123   1.000
    C64     C    0.09713   0.40751   0.60289   1.000
    C65     C    0.09730   0.90772   0.60307   1.000
    C66     C    0.59712   0.40751   0.60290   1.000
    C67     C    0.59730   0.90772   0.60307   1.000
    C68     C    0.23281   0.40974   0.61626   1.000
    C69     C    0.23305   0.91005   0.61680   1.000
    C70     C    0.73281   0.40975   0.61626   1.000
    C71     C    0.73305   0.91005   0.61680   1.000
    C72     C    0.07531   0.14726   0.61552   1.000
    C73     C    0.07549   0.64722   0.61558   1.000
    C74     C    0.57531   0.14726   0.61552   1.000
    C75     C    0.57548   0.64722   0.61559   1.000
    C76     C    0.20415   0.14279   0.60174   1.000
    C77     C    0.20447   0.64297   0.60223   1.000
    C78     C    0.70415   0.14279   0.60170   1.000
    C79     C    0.70446   0.64297   0.60223   1.000
    C80     C    0.09568   0.02448   0.85765   1.000
    C81     C    0.09563   0.52431   0.85751   1.000
    C82     C    0.59567   0.02447   0.85765   1.000
    C83     C    0.59562   0.52431   0.85752   1.000
    N84     N    0.64659   0.61738   0.64375   1.000
    N85     N    0.39642   0.16162   0.44957   1.000
    N86     N    0.39671   0.66182   0.44994   1.000
    N87     N    0.89641   0.16162   0.44957   1.000
    C88     C    0.04575   0.01049   0.92971   1.000
    C89     C    0.04572   0.51041   0.92965   1.000
    C90     C    0.54574   0.01050   0.92972   1.000
    C91     C    0.54571   0.51041   0.92965   1.000
    C92     C    0.45551   0.01396   0.90714   1.000
    C93     C    0.45546   0.51377   0.90690   1.000
    C94     C    0.95550   0.01396   0.90710   1.000
    C95     C    0.95545   0.51378   0.90699   1.000
    C96     C    0.09016   0.99638   0.02314   1.000
    C97     C    0.09018   0.49648   0.02320   1.000
    C98     C    0.59015   0.99639   0.02314   1.000
    C99     C    0.59017   0.49648   0.02322   1.000
    C100    C    0.49794   0.18960   0.90758   1.000
    C101    C    0.49785   0.68942   0.90792   1.000
    C102    C    0.99793   0.18961   0.90758   1.000
    C103    C    0.99785   0.68942   0.90792   1.000
    C104    C    0.42147   0.26538   0.02263   1.000
    C105    C    0.42138   0.76520   0.02296   1.000
    C106    C    0.92146   0.26538   0.02263   1.000
    C107    C    0.92137   0.76520   0.02296   1.000
    C108    C    0.41901   0.20450   0.92980   1.000
    C109    C    0.41893   0.70432   0.93016   1.000
    C110    C    0.91901   0.20450   0.92983   1.000
    C111    C    0.91892   0.70432   0.93010   1.000
    C112    C    0.33288   0.15460   0.85816   1.000
    C113    C    0.33277   0.65446   0.85848   1.000
    C114    C    0.83288   0.15460   0.85817   1.000
    C115    C    0.83277   0.65446   0.85848   1.000
    C116    C    0.40270   0.09227   0.39698   1.000
    C117    C    0.40287   0.59247   0.39716   1.000
    C118    C    0.90269   0.09227   0.39698   1.000
    C119    C    0.90286   0.59247   0.39716   1.000
    C120    C    0.26694   0.08993   0.38323   1.000
    C121    C    0.26719   0.59023   0.38376   1.000
    C122    C    0.76693   0.08992   0.38323   1.000
    C123    C    0.76718   0.59023   0.38376   1.000
    C124    C    0.42452   0.35277   0.38448   1.000
    C125    C    0.42469   0.85273   0.38454   1.000
    C126    C    0.92450   0.35277   0.38447   1.000
    C127    C    0.92468   0.85272   0.38450   1.000
    C128    C    0.29552   0.35701   0.39780   1.000
    C129    C    0.29584   0.85719   0.39829   1.000
    C130    C    0.79551   0.35700   0.39779   1.000
    C131    C    0.79583   0.85718   0.39828   1.000
    C132    C    0.40436   0.47568   0.14251   1.000
    C133    C    0.40431   0.97552   0.14238   1.000
    C134    C    0.90436   0.47568   0.14250   1.000
    C135    C    0.90430   0.97551   0.14238   1.000
    C136    C    0.45428   0.48959   0.07039   1.000
    C137    C    0.45425   0.98949   0.07030   1.000
    C138    C    0.95427   0.48958   0.07038   1.000
    C139    C    0.95424   0.98950   0.07032   1.000
    C140    C    0.04454   0.48621   0.09305   1.000
    C141    C    0.04449   0.98604   0.09290   1.000
    C142    C    0.54453   0.48622   0.09305   1.000
    C143    C    0.54448   0.98603   0.09290   1.000
    C144    C    0.40982   0.50352   0.97681   1.000
    C145    C    0.40984   0.00000   0.97689   1.000
    C146    C    0.90981   0.50351   0.97681   1.000
    C147    C    0.90983   0.00000   0.97690   1.000
    C148    C    0.00216   0.31057   0.09210   1.000
    C149    C    0.00207   0.81039   0.09243   1.000
    C150    C    0.50215   0.31057   0.09209   1.000
    C151    C    0.50206   0.81038   0.09243   1.000
    C152    C    0.07863   0.23479   0.97706   1.000
    C153    C    0.07855   0.73461   0.97739   1.000
    C154    C    0.57862   0.23479   0.97705   1.000
    C155    C    0.57853   0.73461   0.97739   1.000
    C156    C    0.08109   0.29567   0.06985   1.000
    C157    C    0.08100   0.79549   0.07018   1.000
    C158    C    0.58107   0.29567   0.06985   1.000
    C159    C    0.58099   0.79549   0.07019   1.000
    C160    C    0.16724   0.34553   0.14154   1.000
    C161    C    0.16713   0.84539   0.14186   1.000
    C162    C    0.66723   0.34553   0.14154   1.000
    C163    C    0.66711   0.84540   0.14185   1.000
    N164    N    0.10328   0.33816   0.55011   1.000
    N165    N    0.10357   0.83836   0.55048   1.000
    N166    N    0.60328   0.33816   0.55011   1.000
    N167    N    0.60357   0.83836   0.55048   1.000
    N168    N    0.19199   0.33949   0.55894   1.000
    N169    N    0.19233   0.83977   0.55954   1.000
    N170    N    0.69198   0.33950   0.55894   1.000
    N171    N    0.69232   0.83977   0.55955   1.000
    N172    N    0.17597   0.45360   0.64460   1.000
    N173    N    0.17611   0.95386   0.64494   1.000
    N174    N    0.67597   0.45360   0.64467   1.000
    N175    N    0.67610   0.95386   0.64494   1.000
    N176    N    0.08726   0.18919   0.55835   1.000
    N177    N    0.08755   0.68931   0.55867   1.000
    N178    N    0.58725   0.18919   0.55835   1.000
    N179    N    0.58754   0.68931   0.55868   1.000
    N180    N    0.17145   0.18611   0.54925   1.000
    N181    N    0.17183   0.68637   0.54985   1.000
    N182    N    0.67144   0.18611   0.54925   1.000
    N183    N    0.67182   0.68637   0.54985   1.000
    N184    N    0.14641   0.11739   0.64300   1.000
    N185    N    0.14660   0.61738   0.64375   1.000
    N186    N    0.64641   0.11739   0.64360   1.000
    N187    N    0.89670   0.66182   0.44994   1.000
    N188    N    0.30766   0.16021   0.44049   1.000
    N189    N    0.30800   0.66048   0.44109   1.000
    N190    N    0.80765   0.16021   0.44049   1.000
    N191    N    0.80799   0.66048   0.44109   1.000
    N192    N    0.32389   0.04612   0.35510   1.000
    N193    N    0.32403   0.54638   0.35537   1.000
    N194    N    0.82388   0.04612   0.35510   1.000
    N195    N    0.82402   0.54638   0.35537   1.000
    N196    N    0.41245   0.31068   0.44138   1.000
    N197    N    0.41274   0.81079   0.44171   1.000
    N198    N    0.91244   0.31067   0.44138   1.000
    N199    N    0.91272   0.81079   0.44170   1.000
    N200    N    0.32816   0.31361   0.45018   1.000
    N201    N    0.32854   0.81387   0.45079   1.000
    N202    N    0.82815   0.31361   0.45018   1.000
    N203    N    0.82853   0.81386   0.45078   1.000
    N204    N    0.35341   0.38261   0.35630   1.000
    N205    N    0.35359   0.88260   0.35645   1.000
    N206    N    0.85339   0.38260   0.35629   1.000
    N207    N    0.85358   0.88259   0.35644   1.000
    O208    O    0.05602   0.03792   0.77195   1.000
    O209    O    0.05597   0.53776   0.77182   1.000
    O210    O    0.55601   0.03792   0.77195   1.000
    O211    O    0.55597   0.53776   0.77182   1.000
    O212    O    0.17856   0.02444   0.88287   1.000
    O213    O    0.17850   0.52422   0.88269   1.000
    O214    O    0.67855   0.02444   0.88287   1.000
    O215    O    0.67849   0.52422   0.88270   1.000
    O216    O    0.32968   0.09812   0.77315   1.000
    O217    O    0.32958   0.59793   0.77349   1.000
    O218    O    0.82968   0.09812   0.77315   1.000
    O219    O    0.82958   0.59793   0.77349   1.000
    O220    O    0.26257   0.16733   0.88278   1.000
    O221    O    0.26245   0.66725   0.88297   1.000
    O222    O    0.76257   0.16732   0.88279   1.000
    O223    O    0.76244   0.66725   0.88290   1.000
    O224    O    0.44402   0.46222   0.22820   1.000
    O225    O    0.44397   0.96205   0.22807   1.000
    O226    O    0.94401   0.46222   0.22820   1.000
    O227    O    0.94396   0.96206   0.22807   1.000
    O228    O    0.32149   0.47578   0.11734   1.000
    O229    O    0.32144   0.97556   0.11716   1.000
    O230    O    0.82149   0.47578   0.11734   1.000
    O231    O    0.82143   0.97556   0.11716   1.000
    O232    O    0.17042   0.40205   0.22653   1.000
    O233    O    0.17032   0.90187   0.22688   1.000
    O234    O    0.67041   0.40205   0.22653   1.000
    O235    O    0.67031   0.90187   0.22688   1.000
    O236    O    0.23757   0.33274   0.11706   1.000
    O237    O    0.23744   0.83266   0.11726   1.000
    O238    O    0.73756   0.33274   0.11705   1.000
    O239    O    0.73743   0.83266   0.11725   1.000
loop_
    _geom_bond_atom_site_label_1
    _geom_bond_atom_site_label_2
    _geom_bond_distance
    _geom_bond_site_symmetry_2
    _ccdc_geom_bond_type
    C104   H28       1.09031      .   S
    C104   C150      1.39237      .   S
    C104   C108      1.40552  1_554   S
    C106   H30       1.09030      .   S
    C106   C148      1.39258  1_655   S
    C106   C110      1.40525  1_554   S
    C105   H29       1.09028      .   S
    C105   C151      1.39235      .   S
    C105   C109      1.40524  1_554   S
    C107   H31       1.09028      .   S
    C107   C149      1.39256  1_655   S
    C107   C111      1.40574  1_554   S
    C96    H20       1.09030      .   S
    C96    C141      1.39239      .   S
    C96    C88       1.40522  1_564   S
    C98    H22       1.09031      .   S
    C98    C143      1.39248      .   S
    C98    C90       1.40512  1_564   S
    C97    H21       1.09028      .   S
    C97    C140      1.39265      .   S
    C97    C89       1.40489  1_554   S
    C99    H23       1.09081      .   S
    C99    C142      1.39236      .   S
    C99    C91       1.40507  1_554   S
    C158   C150      1.40427      .   S
    C158   C162      1.49114      .   S
    C158   C154      1.40524  1_554   S
    C156   C148      1.40434      .   S
    C156   C160      1.49114      .   S
    C156   C152      1.40515  1_554   S
    C157   C149      1.40432      .   S
    C157   C161      1.49115      .   S
    C157   C153      1.40518  1_554   S
    C159   C151      1.40426      .   S
    C159   C163      1.49115      .   S
    C159   C155      1.40525  1_554   S
    C137   C143      1.40423      .   S
    C137   C133      1.49153      .   S
    C137   C145      1.36768  1_564   S
    C139   C141      1.40451  1_655   S
    C139   C135      1.49145      .   S
    C139   C147      1.36769  1_564   S
    C138   C140      1.40449  1_655   S
    C138   C134      1.49117      .   S
    C138   C146      1.40514  1_554   S
    C136   C142      1.40423      .   S
    C136   C132      1.49129      .   S
    C136   C144      1.40521  1_554   S
    C150   H58       1.08939      .   S
    C148   H56       1.08938      .   S
    C149   H57       1.08935      .   S
    C151   H59       1.08937      .   S
    C143   H51       1.08926      .   S
    C141   H49       1.08930      .   S
    C142   H50       1.08925      .   S
    C140   H48       1.08923      .   S
    O238   C162      1.27513      .   S
    O236   C160      1.27509      .   S
    O229   C133      1.27647      .   S
    O231   C135      1.27646      .   S
    O239   C163      1.27535      .   S
    O237   C161      1.27536      .   S
    O228   C132      1.27654      .   S
    O230   C134      1.27655      .   S
    C160   O232      1.29127      .   S
    C162   O234      1.29128      .   S
    C163   O235      1.29100      .   S
    C161   O233      1.29101      .   S
    C133   O225      1.28973      .   S
    C135   O227      1.28966      .   S
    C134   O226      1.28983      .   S
    C132   O224      1.28964      .   S
    N192   C120      1.34746      .   S
    N192   C116      1.34756      .   S
    N194   C122      1.34745      .   S
    N194   C118      1.34755      .   S
    N193   C121      1.34747      .   S
    N193   C117      1.34757      .   S
    N195   C123      1.34747      .   S
    N195   C119      1.34757      .   S
    N206   C126      1.34750      .   S
    N206   C130      1.34752      .   S
    N204   C124      1.34750      .   S
    N204   C128      1.34752      .   S
    N207   C127      1.34743      .   S
    N207   C131      1.34749      .   S
    N205   C125      1.34750      .   S
    N205   C129      1.34754      .   S
    H36    C120      1.08508      .   S
    H38    C122      1.08509      .   S
    H37    C121      1.08506      .   S
    H39    C123      1.08508      .   S
    H43    C127      1.08505      .   S
    H41    C125      1.08499      .   S
    H42    C126      1.08499      .   S
    H40    C124      1.08499      .   S
    C122   N190      1.34335      .   S
    C120   N188      1.34334      .   S
    C123   N191      1.34337      .   S
    C121   N189      1.34337      .   S
    C126   N198      1.34338      .   S
    C124   N196      1.34328      .   S
    C127   N199      1.34362      .   S
    C125   N197      1.34333      .   S
    H35    C119      1.08490      .   S
    H33    C117      1.08487      .   S
    H34    C118      1.08486      .   S
    H32    C116      1.08483      .   S
    H46    C130      1.08481      .   S
    H44    C128      1.08480      .   S
    H47    C131      1.08479      .   S
    H45    C129      1.08481      .   S
    C118   N87       1.34012      .   S
    C116   N85       1.34010      .   S
    C119   N187      1.34011      .   S
    C117   N86       1.34011      .   S
    C130   N202      1.34010      .   S
    C128   N200      1.34003      .   S
    C131   N203      1.34011      .   S
    C129   N201      1.34011      .   S
    N190   N87       1.38735      .   S
    N188   N85       1.38735      .   S
    N191   N187      1.38730      .   S
    N189   N86       1.38731      .   S
    N198   N202      1.38739      .   S
    N196   N200      1.38737      .   S
    N199   N203      1.38738      .   S
    N197   N201      1.38738      .   S
    N180   N176      1.38739      .   S
    N180   C76       1.34006      .   S
    N182   N178      1.38739      .   S
    N182   C78       1.33972      .   S
    N181   N177      1.38738      .   S
    N181   C77       1.34008      .   S
    N183   N179      1.38743      .   S
    N183   C79       1.34008      .   S
    N164   N168      1.38731      .   S
    N164   C64       1.34009      .   S
    N166   N170      1.38731      .   S
    N166   C66       1.34012      .   S
    N165   N169      1.38736      .   S
    N165   C65       1.34010      .   S
    N167   N171      1.38734      .   S
    N167   C67       1.34009      .   S
    N176   C72       1.34327      .   S
    N178   C74       1.34325      .   S
    N177   C73       1.34332      .   S
    N179   C75       1.34332      .   S
    N170   C70       1.34336      .   S
    N168   C68       1.34334      .   S
    N169   C69       1.34334      .   S
    N171   C71       1.34333      .   S
    C78    H14       1.08477      .   S
    C78    N186      1.34794      .   S
    C76    H12       1.08480      .   S
    C76    N184      1.34166      .   S
    C77    H13       1.08481      .   S
    C77    N185      1.34755      .   S
    C79    H15       1.08480      .   S
    C79    N84       1.34754      .   S
    C64    H0        1.08490      .   S
    C64    N172      1.34762      .   S
    C66    H2        1.08488      .   S
    C66    N174      1.34760      .   S
    C65    H1        1.08487      .   S
    C65    N173      1.34756      .   S
    C67    H3        1.08485      .   S
    C67    N175      1.34756      .   S
    C72    H8        1.08504      .   S
    C72    N184      1.34586      .   S
    C74    H10       1.08510      .   S
    C74    N186      1.34753      .   S
    C73    H9        1.08505      .   S
    C73    N185      1.34752      .   S
    C75    H11       1.08466      .   S
    C75    N84       1.34747      .   S
    C68    H4        1.08507      .   S
    C68    N172      1.34725      .   S
    C70    H6        1.08512      .   S
    C70    N174      1.34747      .   S
    C69    H5        1.08509      .   S
    C69    N173      1.34745      .   S
    C71    H7        1.08510      .   S
    C71    N175      1.34745      .   S
    O209   C81       1.28959      .   S
    O211   C83       1.28963      .   S
    O208   C80       1.28964      .   S
    O210   C82       1.28972      .   S
    O216   C112      1.29094      .   S
    O218   C114      1.29095      .   S
    O217   C113      1.29127      .   S
    O219   C115      1.29130      .   S
    H19    C95       1.08978      .   S
    H17    C93       1.08833      .   S
    H18    C94       1.08893      .   S
    H16    C92       1.08935      .   S
    H26    C102      1.08931      .   S
    H24    C100      1.08930      .   S
    H27    C103      1.08940      .   S
    H25    C101      1.08941      .   S
    C81    O213      1.27656      .   S
    C81    C89       1.49133      .   S
    C83    O215      1.27656      .   S
    C83    C91       1.49134      .   S
    C82    O214      1.27648      .   S
    C82    C90       1.49137      .   S
    C80    O212      1.27650      .   S
    C80    C88       1.49137      .   S
    C112   O220      1.27540      .   S
    C112   C108      1.49108      .   S
    C114   O222      1.27541      .   S
    C114   C110      1.49114      .   S
    C115   O223      1.27467      .   S
    C115   C111      1.49097      .   S
    C113   O221      1.27511      .   S
    C113   C109      1.49116      .   S
    C93    C91       1.40417      .   S
    C93    C144      1.39328      .   S
    C95    C89       1.40450  1_655   S
    C95    C146      1.39229      .   S
    C94    C88       1.40450  1_655   S
    C94    C147      1.41803      .   S
    C92    C90       1.40424      .   S
    C92    C145      1.41748      .   S
    C102   C110      1.40430      .   S
    C102   C152      1.39258  1_655   S
    C100   C108      1.40413      .   S
    C100   C154      1.39238      .   S
    C103   C111      1.40397      .   S
    C103   C153      1.39259  1_655   S
    C101   C109      1.40427      .   S
    C101   C155      1.39239      .   S
    H55    C147      1.07970      .   S
    H52    C144      1.09029      .   S
    H54    C146      1.09029      .   S
    H53    C145      1.08015      .   S
    H60    C152      1.09035      .   S
    H62    C154      1.09030      .   S
    H63    C155      1.09030      .   S
    H61    C153      1.09031      .   S
