# CIF file generated by openbabel 2.4.90, see http://openbabel.sf.net
data_I
_chemical_name_common ''
_cell_length_a 15.976
_cell_length_b 19.736
_cell_length_c 13.545
_cell_angle_alpha 109.661
_cell_angle_beta 105.44
_cell_angle_gamma 94.817
_space_group_name_H-M_alt 'P 1'
_space_group_name_Hall 'P 1'
loop_
    _symmetry_equiv_pos_as_xyz
    x,y,z
loop_
    _atom_site_label
    _atom_site_type_symbol
    _atom_site_fract_x
    _atom_site_fract_y
    _atom_site_fract_z
    _atom_site_occupancy
    N0      N    0.00005   0.25008   0.99986   1.000
    N1      N    0.66323   0.90065   0.60380   1.000
    N2      N    0.49999   0.99937   0.00002   1.000
    N3      N    0.99999   0.50000   0.00001   1.000
    N4      N    0.50000   0.50000   0.99997   1.000
    N5      N    0.50005   0.25008   0.99985   1.000
    N6      N    0.66301   0.40040   0.60342   1.000
    N7      N    0.49995   0.74991   0.00016   1.000
    N8      N    1.00000   0.99937   0.99998   1.000
    N9      N    0.13885   0.65031   0.60281   1.000
    N10     N    0.86114   0.34967   0.39723   1.000
    N11     N    0.86139   0.84975   0.39752   1.000
    N12     N    0.16302   0.40039   0.60341   1.000
    N13     N    0.16324   0.90065   0.60380   1.000
    N14     N    0.99995   0.74992   0.00016   1.000
    N15     N    0.33698   0.59959   0.39661   1.000
    N16     N    0.83675   0.09933   0.39624   1.000
    N17     N    0.63884   0.65031   0.60280   1.000
    N18     N    0.13859   0.15023   0.60242   1.000
    N19     N    0.33676   0.09934   0.39624   1.000
    N20     N    0.83697   0.59959   0.39661   1.000
    N21     N    0.36115   0.34967   0.39724   1.000
    N22     N    0.63859   0.15023   0.60251   1.000
    N23     N    0.36140   0.84975   0.39754   1.000
    Zr24    Zr   0.19028   0.56433   0.75929   1.000
    O25     O    0.18167   0.50951   0.70598   1.000
    O26     O    0.17196   0.59246   0.70573   1.000
    Zr27    Zr   0.75017   0.75015   0.50041   1.000
    O28     O    0.77910   0.70130   0.46705   1.000
    O29     O    0.72121   0.79898   0.53365   1.000
    O30     O    0.78777   0.78302   0.46848   1.000
    O31     O    0.71255   0.71722   0.53219   1.000
    Zr32    Zr   0.99985   0.24990   0.49980   1.000
    O33     O    0.95424   0.28244   0.46686   1.000
    O34     O    0.94614   0.20122   0.46763   1.000
    O35     O    0.05357   0.29856   0.53199   1.000
    O36     O    0.04546   0.21739   0.53277   1.000
    Zr37    Zr   0.19023   0.06458   0.75938   1.000
    O38     O    0.17185   0.09259   0.70559   1.000
    O39     O    0.18172   0.00976   0.70618   1.000
    Zr40    Zr   0.80973   0.43565   0.24075   1.000
    O41     O    0.82804   0.40752   0.29431   1.000
    O42     O    0.81833   0.49047   0.29404   1.000
    Zr43    Zr   0.69027   0.56434   0.75929   1.000
    O44     O    0.67195   0.59246   0.70573   1.000
    O45     O    0.68167   0.50951   0.70600   1.000
    Zr46    Zr   0.25018   0.75016   0.50040   1.000
    O47     O    0.22121   0.79898   0.53364   1.000
    O48     O    0.28778   0.78302   0.46848   1.000
    O49     O    0.27911   0.70130   0.46704   1.000
    O50     O    0.21256   0.71722   0.53218   1.000
    Zr51    Zr   0.24980   0.24982   0.49963   1.000
    O52     O    0.22088   0.29867   0.53299   1.000
    O53     O    0.21221   0.21696   0.53153   1.000
    O54     O    0.27877   0.20100   0.46639   1.000
    O55     O    0.28744   0.28276   0.46785   1.000
    Zr56    Zr   0.74979   0.24982   0.49963   1.000
    O57     O    0.77877   0.20100   0.46639   1.000
    O58     O    0.72087   0.29867   0.53299   1.000
    O59     O    0.78742   0.28276   0.46785   1.000
    O60     O    0.71220   0.21696   0.53155   1.000
    Zr61    Zr   0.00015   0.75008   0.50026   1.000
    O62     O    0.94643   0.70143   0.46806   1.000
    O63     O    0.95453   0.78259   0.46725   1.000
    O64     O    0.04575   0.71754   0.53320   1.000
    O65     O    0.05385   0.79876   0.53242   1.000
    Zr66    Zr   0.30974   0.43564   0.24075   1.000
    O67     O    0.31834   0.49047   0.29404   1.000
    O68     O    0.32805   0.40752   0.29432   1.000
    Zr69    Zr   0.49984   0.24990   0.49981   1.000
    O70     O    0.44614   0.20123   0.46764   1.000
    O71     O    0.45424   0.28244   0.46686   1.000
    O72     O    0.55356   0.29856   0.53200   1.000
    O73     O    0.54545   0.21740   0.53280   1.000
    Zr74    Zr   0.69023   0.06458   0.75938   1.000
    O75     O    0.67184   0.09259   0.70569   1.000
    O76     O    0.68172   0.00976   0.70618   1.000
    Zr77    Zr   0.50015   0.75009   0.50020   1.000
    O78     O    0.44643   0.70143   0.46802   1.000
    O79     O    0.54574   0.71754   0.53316   1.000
    O80     O    0.45453   0.78259   0.46722   1.000
    O81     O    0.55385   0.79876   0.53238   1.000
    Zr82    Zr   0.80977   0.93540   0.24066   1.000
    O83     O    0.81828   0.99022   0.29386   1.000
    O84     O    0.82815   0.90739   0.29435   1.000
    Zr85    Zr   0.30978   0.93540   0.24067   1.000
    O86     O    0.31829   0.99023   0.29387   1.000
    O87     O    0.32816   0.90739   0.29436   1.000
    O88     O    0.86644   0.95557   0.17198   1.000
    O89     O    0.13356   0.04410   0.82803   1.000
    O90     O    0.63357   0.54408   0.82796   1.000
    O91     O    0.78091   0.61926   0.82812   1.000
    O92     O    0.28091   0.61926   0.82813   1.000
    O93     O    0.71908   0.88051   0.17196   1.000
    O94     O    0.78092   0.11947   0.82807   1.000
    O95     O    0.63355   0.04410   0.82804   1.000
    O96     O    0.13358   0.54408   0.82797   1.000
    O97     O    0.86642   0.45590   0.17207   1.000
    O98     O    0.71909   0.38072   0.17191   1.000
    O99     O    0.36643   0.45590   0.17206   1.000
    O100    O    0.21909   0.88051   0.17197   1.000
    O101    O    0.28092   0.11947   0.82807   1.000
    O102    O    0.21910   0.38072   0.17191   1.000
    O103    O    0.36645   0.95557   0.17200   1.000
loop_
    _geom_bond_atom_site_label_1
    _geom_bond_atom_site_label_2
    _geom_bond_distance
    _geom_bond_site_symmetry_2
    _ccdc_geom_bond_type
    Zr24   O25       1.05238      .   S
    N12    O25       2.07724      .   S
    Zr24   O26       1.05134      .   S
    N9     O26       2.07525      .   S
    Zr27   O28       1.11363      .   S
    N20    O28       2.29946      .   S
    Zr27   O29       1.11325      .   S
    N1     O29       2.29881      .   S
    Zr27   O30       1.10910      .   S
    N11    O30       2.28813      .   S
    Zr27   O31       1.10885      .   S
    N17    O31       2.28773      .   S
    Zr32   O33       1.11384      .   S
    N10    O33       2.29978      .   S
    Zr32   O34       1.10894      .   S
    N16    O34       2.28792      .   S
    Zr32   O35       1.10880  1_655   S
    N12    O35       2.28772      .   S
    Zr32   O36       1.11362  1_655   S
    N18    O36       2.29922      .   S
    Zr37   O38       1.05218      .   S
    N18    O38       2.07478      .   S
    Zr37   O39       1.05210      .   S
    N13    O39       2.07682  1_565   S
    Zr40   O41       1.05131      .   S
    N10    O41       2.07520      .   S
    Zr40   O42       1.05235      .   S
    N20    O42       2.07726      .   S
    Zr43   O44       1.05132      .   S
    N17    O44       2.07522      .   S
    Zr43   O45       1.05236      .   S
    N6     O45       2.07729      .   S
    Zr46   O47       1.11326      .   S
    N13    O47       2.29885      .   S
    Zr46   O48       1.10903      .   S
    N23    O48       2.28798      .   S
    Zr46   O49       1.11362      .   S
    N15    O49       2.29945      .   S
    Zr46   O50       1.10889      .   S
    N9     O50       2.28782      .   S
    Zr51   O52       1.11360      .   S
    N12    O52       2.29940      .   S
    Zr51   O53       1.10881      .   S
    N18    O53       2.28732      .   S
    Zr51   O54       1.11326      .   S
    N19    O54       2.29883      .   S
    Zr51   O55       1.10892      .   S
    N21    O55       2.28786      .   S
    Zr56   O57       1.11326      .   S
    N16    O57       2.29885      .   S
    Zr56   O58       1.11361      .   S
    N6     O58       2.29943      .   S
    Zr56   O59       1.10891      .   S
    N10    O59       2.28786      .   S
    Zr56   O60       1.10900      .   S
    N22    O60       2.28791      .   S
    Zr61   O62       1.10885  1_455   S
    N20    O62       2.28779      .   S
    Zr61   O63       1.11382  1_455   S
    N11    O63       2.29975      .   S
    Zr61   O64       1.11378      .   S
    N9     O64       2.29969      .   S
    Zr61   O65       1.10888      .   S
    N13    O65       2.28783      .   S
    Zr66   O67       1.05236      .   S
    N15    O67       2.07729      .   S
    Zr66   O68       1.05132      .   S
    N21    O68       2.07520      .   S
    Zr69   O70       1.10887      .   S
    N19    O70       2.28782      .   S
    Zr69   O71       1.11378      .   S
    N21    O71       2.29968      .   S
    Zr69   O72       1.10881      .   S
    N6     O72       2.28772      .   S
    Zr69   O73       1.11372      .   S
    N22    O73       2.29955      .   S
    Zr74   O75       1.05117      .   S
    N22    O75       2.07498      .   S
    Zr74   O76       1.05208      .   S
    N1     O76       2.07678  1_565   S
    Zr77   O78       1.10883      .   S
    N15    O78       2.28774      .   S
    Zr77   O79       1.11391      .   S
    N17    O79       2.29989      .   S
    Zr77   O80       1.11359      .   S
    N23    O80       2.29936      .   S
    Zr77   O81       1.10885      .   S
    N1     O81       2.28780      .   S
    Zr82   O83       1.05209      .   S
    N16    O83       2.07681  1_545   S
    Zr82   O84       1.05111      .   S
    N11    O84       2.07481      .   S
    Zr85   O86       1.05208      .   S
    N19    O86       2.07679  1_545   S
    Zr85   O87       1.05112      .   S
    N23    O87       2.07488      .   S
    N8     O88       3.79734  1_556   S
    Zr82   O88       1.57496      .   S
    N8     O89       3.80398  1_665   S
    Zr37   O89       1.57727      .   S
    Zr43   O90       1.57584      .   S
    N4     O90       3.79990      .   S
    Zr43   O91       1.57436      .   S
    N14    O91       3.79797  1_554   S
    N7     O92       3.79789  1_554   S
    Zr24   O92       1.57434      .   S
    N7     O93       3.79800      .   S
    Zr82   O93       1.57445      .   S
    Zr74   O94       1.57447      .   S
    N0     O94       3.79806  1_455   S
    Zr74   O95       1.57735      .   S
    N2     O95       3.80422  1_564   S
    Zr24   O96       1.57597      .   S
    N3     O96       3.80033  1_654   S
    Zr40   O97       1.57600      .   S
    N3     O97       3.80042      .   S
    Zr40   O98       1.57435      .   S
    N5     O98       3.79791  1_556   S
    N4     O99       3.80070  1_556   S
    Zr66   O99       1.57609      .   S
    N14    O100      3.79810  1_655   S
    Zr85   O100      1.57448      .   S
    N5     O101      3.79798      .   S
    Zr37   O101      1.57444      .   S
    N0     O102      3.79797  1_556   S
    Zr66   O102      1.57437      .   S
    N2     O103      3.79701      .   S
    Zr85   O103      1.57485      .   S
