# CIF file generated by openbabel 2.4.90, see http://openbabel.sf.net
data_I
_chemical_name_common ''
_cell_length_a 15.976
_cell_length_b 19.736
_cell_length_c 13.545
_cell_angle_alpha 109.661
_cell_angle_beta 105.44
_cell_angle_gamma 94.817
_space_group_name_H-M_alt 'P 1'
_space_group_name_Hall 'P 1'
loop_
    _symmetry_equiv_pos_as_xyz
    x,y,z
loop_
    _atom_site_label
    _atom_site_type_symbol
    _atom_site_fract_x
    _atom_site_fract_y
    _atom_site_fract_z
    _atom_site_occupancy
    N0      N    0.00005   0.25008   0.99986   1.000
    N1      N    0.66323   0.90065   0.60380   1.000
    N2      N    0.49999   0.99937   0.00002   1.000
    N3      N    0.99999   0.50000   0.00001   1.000
    N4      N    0.50000   0.50000   0.99997   1.000
    N5      N    0.50005   0.25008   0.99985   1.000
    N6      N    0.66301   0.40040   0.60342   1.000
    N7      N    0.49995   0.74991   0.00016   1.000
    N8      N    1.00000   0.99937   0.99998   1.000
    N9      N    0.13885   0.65031   0.60281   1.000
    N10     N    0.86114   0.34967   0.39723   1.000
    N11     N    0.86139   0.84975   0.39752   1.000
    N12     N    0.16302   0.40039   0.60341   1.000
    N13     N    0.16324   0.90065   0.60380   1.000
    N14     N    0.99995   0.74992   0.00016   1.000
    N15     N    0.33698   0.59959   0.39661   1.000
    N16     N    0.83675   0.09933   0.39624   1.000
    N17     N    0.63884   0.65031   0.60280   1.000
    N18     N    0.13859   0.15023   0.60242   1.000
    N19     N    0.33676   0.09934   0.39624   1.000
    N20     N    0.83697   0.59959   0.39661   1.000
    N21     N    0.36115   0.34967   0.39724   1.000
    N22     N    0.63859   0.15023   0.60251   1.000
    N23     N    0.36140   0.84975   0.39754   1.000
    Zr24    Zr   0.19028   0.56433   0.75929   1.000
    O25     O    0.27672   0.62359   0.83497   1.000
    O26     O    0.18167   0.50951   0.70598   1.000
    O27     O    0.12592   0.54493   0.82104   1.000
    O28     O    0.14123   0.54323   0.83490   1.000
    O29     O    0.17196   0.59246   0.70573   1.000
    O30     O    0.28511   0.61493   0.82128   1.000
    Zr31    Zr   0.75017   0.75015   0.50041   1.000
    O32     O    0.77910   0.70130   0.46705   1.000
    O33     O    0.72121   0.79898   0.53365   1.000
    O34     O    0.78777   0.78302   0.46848   1.000
    O35     O    0.71255   0.71722   0.53219   1.000
    Zr36    Zr   0.99985   0.24990   0.49980   1.000
    O37     O    0.95424   0.28244   0.46686   1.000
    O38     O    0.94614   0.20122   0.46763   1.000
    O39     O    0.05357   0.29856   0.53199   1.000
    O40     O    0.04546   0.21739   0.53277   1.000
    Zr41    Zr   0.19023   0.06458   0.75938   1.000
    O42     O    0.14121   0.04326   0.83497   1.000
    O43     O    0.17185   0.09259   0.70559   1.000
    O44     O    0.18172   0.00976   0.70618   1.000
    O45     O    0.12590   0.04495   0.82110   1.000
    O46     O    0.27673   0.12380   0.83492   1.000
    O47     O    0.28512   0.11515   0.82122   1.000
    Zr48    Zr   0.80973   0.43565   0.24075   1.000
    O49     O    0.85876   0.45675   0.16514   1.000
    O50     O    0.72329   0.37639   0.16506   1.000
    O51     O    0.82804   0.40752   0.29431   1.000
    O52     O    0.71489   0.38505   0.17875   1.000
    O53     O    0.81833   0.49047   0.29404   1.000
    O54     O    0.87408   0.45505   0.17900   1.000
    Zr55    Zr   0.69027   0.56434   0.75929   1.000
    O56     O    0.67195   0.59246   0.70573   1.000
    O57     O    0.62591   0.54493   0.82103   1.000
    O58     O    0.68167   0.50951   0.70600   1.000
    O59     O    0.78510   0.61493   0.82128   1.000
    O60     O    0.77671   0.62360   0.83496   1.000
    O61     O    0.64123   0.54324   0.83489   1.000
    Zr62    Zr   0.25018   0.75016   0.50040   1.000
    O63     O    0.22121   0.79898   0.53364   1.000
    O64     O    0.28778   0.78302   0.46848   1.000
    O65     O    0.27911   0.70130   0.46704   1.000
    O66     O    0.21256   0.71722   0.53218   1.000
    Zr67    Zr   0.24980   0.24982   0.49963   1.000
    O68     O    0.22088   0.29867   0.53299   1.000
    O69     O    0.21221   0.21696   0.53153   1.000
    O70     O    0.27877   0.20100   0.46639   1.000
    O71     O    0.28744   0.28276   0.46785   1.000
    Zr72    Zr   0.74979   0.24982   0.49963   1.000
    O73     O    0.77877   0.20100   0.46639   1.000
    O74     O    0.72087   0.29867   0.53299   1.000
    O75     O    0.78742   0.28276   0.46785   1.000
    O76     O    0.71220   0.21696   0.53155   1.000
    Zr77    Zr   0.00015   0.75008   0.50026   1.000
    O78     O    0.94643   0.70143   0.46806   1.000
    O79     O    0.95453   0.78259   0.46725   1.000
    O80     O    0.04575   0.71754   0.53320   1.000
    O81     O    0.05385   0.79876   0.53242   1.000
    Zr82    Zr   0.30974   0.43564   0.24075   1.000
    O83     O    0.31834   0.49047   0.29404   1.000
    O84     O    0.35877   0.45675   0.16513   1.000
    O85     O    0.22330   0.37639   0.16507   1.000
    O86     O    0.21490   0.38505   0.17875   1.000
    O87     O    0.32805   0.40752   0.29432   1.000
    O88     O    0.37409   0.45505   0.17899   1.000
    Zr89    Zr   0.49984   0.24990   0.49981   1.000
    O90     O    0.44614   0.20123   0.46764   1.000
    O91     O    0.45424   0.28244   0.46686   1.000
    O92     O    0.55356   0.29856   0.53200   1.000
    O93     O    0.54545   0.21740   0.53280   1.000
    Zr94    Zr   0.69023   0.06458   0.75938   1.000
    O95     O    0.67184   0.09259   0.70569   1.000
    O96     O    0.64121   0.04326   0.83498   1.000
    O97     O    0.68172   0.00976   0.70618   1.000
    O98     O    0.78512   0.11515   0.82122   1.000
    O99     O    0.77673   0.12380   0.83493   1.000
    O100    O    0.62589   0.04494   0.82111   1.000
    Zr101   Zr   0.50015   0.75009   0.50020   1.000
    O102    O    0.44643   0.70143   0.46802   1.000
    O103    O    0.54574   0.71754   0.53316   1.000
    O104    O    0.45453   0.78259   0.46722   1.000
    O105    O    0.55385   0.79876   0.53238   1.000
    Zr106   Zr   0.80977   0.93540   0.24066   1.000
    O107    O    0.81828   0.99022   0.29386   1.000
    O108    O    0.82815   0.90739   0.29435   1.000
    O109    O    0.71488   0.88484   0.17881   1.000
    O110    O    0.85878   0.95641   0.16505   1.000
    O111    O    0.72327   0.87619   0.16511   1.000
    O112    O    0.87410   0.95473   0.17892   1.000
    Zr113   Zr   0.30978   0.93540   0.24067   1.000
    O114    O    0.31829   0.99023   0.29387   1.000
    O115    O    0.32816   0.90739   0.29436   1.000
    O116    O    0.37411   0.95473   0.17893   1.000
    O117    O    0.21489   0.88484   0.17882   1.000
    O118    O    0.22328   0.87619   0.16512   1.000
    O119    O    0.35879   0.95641   0.16507   1.000
loop_
    _geom_bond_atom_site_label_1
    _geom_bond_atom_site_label_2
    _geom_bond_distance
    _geom_bond_site_symmetry_2
    _ccdc_geom_bond_type
    Zr24   O25       1.57922      .   S
    N7     O25       3.80068  1_554   S
    Zr24   O26       1.05238      .   S
    N12    O26       2.07724      .   S
    Zr24   O27       1.58451      .   S
    N3     O27       3.80185  1_654   S
    Zr24   O28       1.57968      .   S
    N3     O28       3.80390  1_654   S
    Zr24   O29       1.05134      .   S
    N9     O29       2.07525      .   S
    Zr24   O30       1.58172      .   S
    N7     O30       3.80019  1_554   S
    Zr31   O32       1.11363      .   S
    N20    O32       2.29946      .   S
    Zr31   O33       1.11325      .   S
    N1     O33       2.29881      .   S
    Zr31   O34       1.10910      .   S
    N11    O34       2.28813      .   S
    Zr31   O35       1.10885      .   S
    N17    O35       2.28773      .   S
    Zr36   O37       1.11384      .   S
    N10    O37       2.29978      .   S
    Zr36   O38       1.10894      .   S
    N16    O38       2.28792      .   S
    Zr36   O39       1.10880  1_655   S
    N12    O39       2.28772      .   S
    Zr36   O40       1.11362  1_655   S
    N18    O40       2.29922      .   S
    Zr41   O42       1.58114      .   S
    N8     O42       3.80737  1_665   S
    Zr41   O43       1.05218      .   S
    N18    O43       2.07478      .   S
    Zr41   O44       1.05210      .   S
    N13    O44       2.07682  1_565   S
    Zr41   O45       1.58563      .   S
    N8     O45       3.80568  1_665   S
    Zr41   O46       1.57912      .   S
    N5     O46       3.80092      .   S
    Zr41   O47       1.58203      .   S
    N5     O47       3.80014      .   S
    Zr48   O49       1.57973      .   S
    N3     O49       3.80397      .   S
    Zr48   O50       1.57923      .   S
    N5     O50       3.80071  1_556   S
    Zr48   O51       1.05131      .   S
    N10    O51       2.07520      .   S
    Zr48   O52       1.58173      .   S
    N5     O52       3.80020  1_556   S
    Zr48   O53       1.05235      .   S
    N20    O53       2.07726      .   S
    Zr48   O54       1.58451      .   S
    N3     O54       3.80195      .   S
    Zr55   O56       1.05132      .   S
    N17    O56       2.07522      .   S
    Zr55   O57       1.58438      .   S
    N4     O57       3.80142      .   S
    Zr55   O58       1.05236      .   S
    N6     O58       2.07729      .   S
    Zr55   O59       1.58174      .   S
    N14    O59       3.80025  1_554   S
    Zr55   O60       1.57922      .   S
    N14    O60       3.80077  1_554   S
    Zr55   O61       1.57955      .   S
    N4     O61       3.80347      .   S
    Zr62   O63       1.11326      .   S
    N13    O63       2.29885      .   S
    Zr62   O64       1.10903      .   S
    N23    O64       2.28798      .   S
    Zr62   O65       1.11362      .   S
    N15    O65       2.29945      .   S
    Zr62   O66       1.10889      .   S
    N9     O66       2.28782      .   S
    Zr67   O68       1.11360      .   S
    N12    O68       2.29940      .   S
    Zr67   O69       1.10881      .   S
    N18    O69       2.28732      .   S
    Zr67   O70       1.11326      .   S
    N19    O70       2.29883      .   S
    Zr67   O71       1.10892      .   S
    N21    O71       2.28786      .   S
    Zr72   O73       1.11326      .   S
    N16    O73       2.29885      .   S
    Zr72   O74       1.11361      .   S
    N6     O74       2.29943      .   S
    Zr72   O75       1.10891      .   S
    N10    O75       2.28786      .   S
    Zr72   O76       1.10900      .   S
    N22    O76       2.28791      .   S
    Zr77   O78       1.10885  1_455   S
    N20    O78       2.28779      .   S
    Zr77   O79       1.11382  1_455   S
    N11    O79       2.29975      .   S
    Zr77   O80       1.11378      .   S
    N9     O80       2.29969      .   S
    Zr77   O81       1.10888      .   S
    N13    O81       2.28783      .   S
    Zr82   O83       1.05236      .   S
    N15    O83       2.07729      .   S
    Zr82   O84       1.57983      .   S
    N4     O84       3.80424  1_556   S
    Zr82   O85       1.57924      .   S
    N0     O85       3.80077  1_556   S
    Zr82   O86       1.58176      .   S
    N0     O86       3.80025  1_556   S
    Zr82   O87       1.05132      .   S
    N21    O87       2.07520      .   S
    Zr82   O88       1.58459      .   S
    N4     O88       3.80225  1_556   S
    Zr89   O90       1.10887      .   S
    N19    O90       2.28782      .   S
    Zr89   O91       1.11378      .   S
    N21    O91       2.29968      .   S
    Zr89   O92       1.10881      .   S
    N6     O92       2.28772      .   S
    Zr89   O93       1.11372      .   S
    N22    O93       2.29955      .   S
    Zr94   O95       1.05117      .   S
    N22    O95       2.07498      .   S
    Zr94   O96       1.58123      .   S
    N2     O96       3.80759  1_564   S
    Zr94   O97       1.05208      .   S
    N1     O97       2.07678  1_565   S
    Zr94   O98       1.58205      .   S
    N0     O98       3.80021  1_455   S
    Zr94   O99       1.57914      .   S
    N0     O99       3.80100  1_455   S
    Zr94   O100      1.58570      .   S
    N2     O100      3.80592  1_564   S
    Zr101  O102      1.10883      .   S
    N15    O102      2.28774      .   S
    Zr101  O103      1.11391      .   S
    N17    O103      2.29989      .   S
    Zr101  O104      1.11359      .   S
    N23    O104      2.29936      .   S
    Zr101  O105      1.10885      .   S
    N1     O105      2.28780      .   S
    Zr106  O107      1.05209      .   S
    N16    O107      2.07681  1_545   S
    Zr106  O108      1.05111      .   S
    N11    O108      2.07481      .   S
    Zr106  O109      1.58204      .   S
    N7     O109      3.80014      .   S
    Zr106  O110      1.57864      .   S
    N8     O110      3.80098  1_556   S
    Zr106  O111      1.57911      .   S
    N7     O111      3.80094      .   S
    Zr106  O112      1.58353      .   S
    N8     O112      3.79878  1_556   S
    Zr113  O114      1.05208      .   S
    N19    O114      2.07679  1_545   S
    Zr113  O115      1.05112      .   S
    N23    O115      2.07488      .   S
    Zr113  O116      1.58342      .   S
    N2     O116      3.79845      .   S
    Zr113  O117      1.58207      .   S
    N14    O117      3.80024  1_655   S
    Zr113  O118      1.57915      .   S
    N14    O118      3.80104  1_655   S
    Zr113  O119      1.57854      .   S
    N2     O119      3.80067      .   S
