# CIF file generated by openbabel 2.4.90, see http://openbabel.sf.net
data_I
_chemical_name_common ''
_cell_length_a 15.976
_cell_length_b 19.736
_cell_length_c 13.545
_cell_angle_alpha 109.661
_cell_angle_beta 105.44
_cell_angle_gamma 94.817
_space_group_name_H-M_alt 'P 1'
_space_group_name_Hall 'P 1'
loop_
    _symmetry_equiv_pos_as_xyz
    x,y,z
loop_
    _atom_site_label
    _atom_site_type_symbol
    _atom_site_fract_x
    _atom_site_fract_y
    _atom_site_fract_z
    _atom_site_occupancy
    Zr0     Zr   0.19023   0.06458   0.75938   1.000
    Zr1     Zr   0.19028   0.56433   0.75929   1.000
    Zr2     Zr   0.69023   0.06458   0.75938   1.000
    Zr3     Zr   0.69027   0.56434   0.75929   1.000
    Zr4     Zr   0.30974   0.43564   0.24075   1.000
    Zr5     Zr   0.30978   0.93540   0.24067   1.000
    Zr6     Zr   0.80973   0.43565   0.24075   1.000
    Zr7     Zr   0.80977   0.93540   0.24066   1.000
    Zr8     Zr   0.99985   0.24990   0.49980   1.000
    Zr9     Zr   0.00015   0.75008   0.50026   1.000
    Zr10    Zr   0.49984   0.24990   0.49981   1.000
    Zr11    Zr   0.50015   0.75009   0.50020   1.000
    Zr12    Zr   0.24980   0.24982   0.49963   1.000
    Zr13    Zr   0.25018   0.75016   0.50040   1.000
    Zr14    Zr   0.74979   0.24982   0.49963   1.000
    Zr15    Zr   0.75017   0.75015   0.50041   1.000
    N16     N    0.00005   0.25008   0.99986   1.000
    O17     O    0.12007   0.33446   0.11675   1.000
    O18     O    0.88000   0.16571   0.88306   1.000
    O19     O    0.13685   0.31713   0.08938   1.000
    O20     O    0.86322   0.18301   0.91047   1.000
    N21     N    0.66323   0.90065   0.60380   1.000
    O22     O    0.69224   0.84780   0.56689   1.000
    O23     O    0.67320   0.95493   0.65298   1.000
    O24     O    0.60755   0.84744   0.56457   1.000
    N25     N    0.49999   0.99937   0.00002   1.000
    O26     O    0.40780   0.97742   0.08946   1.000
    O27     O    0.56156   0.02531   0.88284   1.000
    O28     O    0.59219   0.02194   0.91057   1.000
    O29     O    0.43844   0.97405   0.11719   1.000
    N30     N    0.99999   0.50000   0.00001   1.000
    O31     O    0.90780   0.47785   0.08953   1.000
    O32     O    0.06156   0.52552   0.88278   1.000
    O33     O    0.09219   0.52214   0.91050   1.000
    O34     O    0.93843   0.47446   0.11724   1.000
    N35     N    0.50000   0.50000   0.99997   1.000
    O36     O    0.40781   0.47785   0.08951   1.000
    O37     O    0.56156   0.52552   0.88276   1.000
    O38     O    0.59219   0.52214   0.91048   1.000
    O39     O    0.43844   0.47446   0.11722   1.000
    N40     N    0.50005   0.25008   0.99985   1.000
    O41     O    0.62006   0.33446   0.11675   1.000
    O42     O    0.38000   0.16571   0.88306   1.000
    O43     O    0.63685   0.31713   0.08938   1.000
    O44     O    0.36323   0.18302   0.91047   1.000
    N45     N    0.66301   0.40040   0.60342   1.000
    O46     O    0.67307   0.45468   0.65270   1.000
    O47     O    0.60729   0.34721   0.56419   1.000
    O48     O    0.69195   0.34753   0.56635   1.000
    N49     N    0.49995   0.74991   0.00016   1.000
    O50     O    0.62000   0.83427   0.11697   1.000
    O51     O    0.37994   0.66552   0.88328   1.000
    O52     O    0.63678   0.81697   0.08956   1.000
    O53     O    0.36316   0.68285   0.91065   1.000
    N54     N    1.00000   0.99937   0.99998   1.000
    O55     O    0.93843   0.97405   0.11717   1.000
    O56     O    0.90780   0.97742   0.08945   1.000
    O57     O    0.06156   0.02531   0.88282   1.000
    O58     O    0.09220   0.02194   0.91055   1.000
    N59     N    0.13885   0.65031   0.60281   1.000
    O60     O    0.15365   0.62058   0.65216   1.000
    O61     O    0.09135   0.68500   0.56614   1.000
    O62     O    0.17493   0.68429   0.56397   1.000
    N63     N    0.86114   0.34967   0.39723   1.000
    O64     O    0.84635   0.37940   0.34788   1.000
    O65     O    0.90864   0.31498   0.43391   1.000
    O66     O    0.82505   0.31569   0.43607   1.000
    N67     N    0.86139   0.84975   0.39752   1.000
    O68     O    0.84653   0.87937   0.34803   1.000
    O69     O    0.90892   0.81509   0.43425   1.000
    O70     O    0.82537   0.81588   0.43656   1.000
    N71     N    0.16302   0.40039   0.60341   1.000
    O72     O    0.10729   0.34721   0.56418   1.000
    O73     O    0.17307   0.45468   0.65268   1.000
    O74     O    0.19196   0.34753   0.56635   1.000
    N75     N    0.16324   0.90065   0.60380   1.000
    O76     O    0.17320   0.95493   0.65298   1.000
    O77     O    0.10755   0.84744   0.56458   1.000
    O78     O    0.19225   0.84781   0.56688   1.000
    N79     N    0.99995   0.74992   0.00016   1.000
    O80     O    0.12000   0.83428   0.11697   1.000
    O81     O    0.87994   0.66553   0.88327   1.000
    O82     O    0.13678   0.81697   0.08956   1.000
    O83     O    0.86316   0.68286   0.91063   1.000
    N84     N    0.33698   0.59959   0.39661   1.000
    O85     O    0.39270   0.65277   0.43584   1.000
    O86     O    0.32693   0.54530   0.34734   1.000
    O87     O    0.30804   0.65245   0.43368   1.000
    N88     N    0.83675   0.09933   0.39624   1.000
    O89     O    0.89244   0.15255   0.43546   1.000
    O90     O    0.80774   0.15217   0.43315   1.000
    O91     O    0.82679   0.04505   0.34706   1.000
    N92     N    0.63884   0.65031   0.60280   1.000
    O93     O    0.59134   0.68500   0.56612   1.000
    O94     O    0.67492   0.68429   0.56397   1.000
    O95     O    0.65364   0.62058   0.65216   1.000
    N96     N    0.13859   0.15023   0.60242   1.000
    O97     O    0.09107   0.18489   0.56575   1.000
    O98     O    0.15346   0.12061   0.65181   1.000
    O99     O    0.17461   0.18410   0.56343   1.000
    N100    N    0.33676   0.09934   0.39624   1.000
    O101    O    0.39244   0.15255   0.43547   1.000
    O102    O    0.32680   0.04505   0.34706   1.000
    O103    O    0.30775   0.15218   0.43315   1.000
    N104    N    0.83697   0.59959   0.39661   1.000
    O105    O    0.80803   0.65245   0.43368   1.000
    O106    O    0.82692   0.54530   0.34734   1.000
    O107    O    0.89270   0.65277   0.43586   1.000
    N108    N    0.36115   0.34967   0.39724   1.000
    O109    O    0.40865   0.31498   0.43392   1.000
    O110    O    0.34636   0.37940   0.34788   1.000
    O111    O    0.32507   0.31569   0.43607   1.000
    N112    N    0.63859   0.15023   0.60251   1.000
    O113    O    0.65345   0.12061   0.65200   1.000
    O114    O    0.59107   0.18489   0.56579   1.000
    O115    O    0.67460   0.18410   0.56347   1.000
    N116    N    0.36140   0.84975   0.39754   1.000
    O117    O    0.34655   0.87938   0.34805   1.000
    O118    O    0.40892   0.81510   0.43425   1.000
    O119    O    0.32538   0.81588   0.43657   1.000
loop_
    _geom_bond_atom_site_label_1
    _geom_bond_atom_site_label_2
    _geom_bond_distance
    _geom_bond_site_symmetry_2
    _ccdc_geom_bond_type
    N16    O17       2.24271  1_556   S
    Zr4    O17       3.16351      .   S
    N16    O18       2.24254  1_455   S
    Zr2    O18       3.16411      .   S
    N16    O19       2.24092  1_556   S
    Zr4    O19       3.15848      .   S
    N16    O20       2.24111  1_455   S
    Zr2    O20       3.15828      .   S
    N21    O22       1.18576      .   S
    Zr15   O22       2.22649      .   S
    N21    O23       1.02548      .   S
    Zr2    O23       2.10415  1_545   S
    N21    O24       1.18008      .   S
    Zr11   O24       2.21770      .   S
    N25    O26       2.24077      .   S
    Zr5    O26       3.15707      .   S
    N25    O27       2.24541  1_564   S
    Zr2    O27       3.17140      .   S
    N25    O28       2.24477  1_564   S
    Zr2    O28       3.16247      .   S
    N25    O29       2.24016      .   S
    Zr5    O29       3.16685      .   S
    N30    O31       2.24274      .   S
    Zr6    O31       3.15946      .   S
    N30    O32       2.24256  1_654   S
    Zr1    O32       3.16901      .   S
    N30    O33       2.24271  1_654   S
    Zr1    O33       3.15936      .   S
    N30    O34       2.24265      .   S
    Zr6    O34       3.16902      .   S
    N35    O36       2.24291  1_556   S
    Zr4    O36       3.15965      .   S
    N35    O37       2.24226      .   S
    Zr3    O37       3.16876      .   S
    N35    O38       2.24241      .   S
    Zr3    O38       3.15911      .   S
    N35    O39       2.24286  1_556   S
    Zr4    O39       3.16919      .   S
    N40    O41       2.24268  1_556   S
    Zr6    O41       3.16346      .   S
    N40    O42       2.24249      .   S
    Zr0    O42       3.16405      .   S
    N40    O43       2.24087  1_556   S
    Zr6    O43       3.15845      .   S
    N40    O44       2.24106      .   S
    Zr0    O44       3.15823      .   S
    N45    O46       1.02570      .   S
    Zr3    O46       2.10472      .   S
    N45    O47       1.18005      .   S
    Zr10   O47       2.21761      .   S
    N45    O48       1.18601      .   S
    Zr14   O48       2.22722      .   S
    N49    O50       2.24249      .   S
    Zr7    O50       3.16407      .   S
    N49    O51       2.24268  1_554   S
    Zr1    O51       3.16343      .   S
    N49    O52       2.24107      .   S
    Zr7    O52       3.15823      .   S
    N49    O53       2.24085  1_554   S
    Zr1    O53       3.15844      .   S
    N54    O55       2.24038  1_556   S
    Zr7    O55       3.16705      .   S
    N54    O56       2.24097  1_556   S
    Zr7    O56       3.15728      .   S
    N54    O57       2.24523  1_665   S
    Zr0    O57       3.17125      .   S
    N54    O58       2.24465  1_665   S
    Zr0    O58       3.16229      .   S
    N59    O60       1.02475      .   S
    Zr1    O60       2.10267      .   S
    N59    O61       1.18610      .   S
    Zr9    O61       2.22757      .   S
    N59    O62       1.18007      .   S
    Zr13   O62       2.21778      .   S
    N63    O64       1.02473      .   S
    Zr6    O64       2.10263      .   S
    N63    O65       1.18614      .   S
    Zr8    O65       2.22767      .   S
    N63    O66       1.18010      .   S
    Zr14   O66       2.21782      .   S
    N67    O68       1.02454      .   S
    Zr7    O68       2.10222      .   S
    N67    O69       1.18613      .   S
    Zr9    O69       2.22763  1_455   S
    N67    O70       1.18020      .   S
    Zr15   O70       2.21819      .   S
    N71    O72       1.18005      .   S
    Zr8    O72       2.21761  1_655   S
    N71    O73       1.02564      .   S
    Zr1    O73       2.10476      .   S
    N71    O74       1.18600      .   S
    Zr12   O74       2.22721      .   S
    N75    O76       1.02550      .   S
    Zr0    O76       2.10419  1_545   S
    N75    O77       1.18009      .   S
    Zr9    O77       2.21776      .   S
    N75    O78       1.18577      .   S
    Zr13   O78       2.22653      .   S
    N79    O80       2.24255  1_655   S
    Zr5    O80       3.16415      .   S
    N79    O81       2.24272  1_554   S
    Zr3    O81       3.16349      .   S
    N79    O82       2.24114  1_655   S
    Zr5    O82       3.15830      .   S
    N79    O83       2.24092  1_554   S
    Zr3    O83       3.15844      .   S
    N84    O85       1.18005      .   S
    Zr11   O85       2.21765      .   S
    N84    O86       1.02570      .   S
    Zr4    O86       2.10473      .   S
    N84    O87       1.18602      .   S
    Zr13   O87       2.22724      .   S
    N88    O89       1.18012      .   S
    Zr8    O89       2.21788      .   S
    N88    O90       1.18577      .   S
    Zr14   O90       2.22653      .   S
    N88    O91       1.02550      .   S
    Zr7    O91       2.10418  1_565   S
    N92    O93       1.18617      .   S
    Zr11   O93       2.22782      .   S
    N92    O94       1.18003      .   S
    Zr15   O94       2.21770      .   S
    N92    O95       1.02475      .   S
    Zr3    O95       2.10264      .   S
    N96    O97       1.18580      .   S
    Zr8    O97       2.22723  1_655   S
    N96    O98       1.02346      .   S
    Zr0    O98       2.10435      .   S
    N96    O99       1.17967      .   S
    Zr12   O99       2.21763      .   S
    N100   O101      1.18008      .   S
    Zr10   O101      2.21775      .   S
    N100   O102      1.02549      .   S
    Zr5    O102      2.10416  1_565   S
    N100   O103      1.18577      .   S
    Zr12   O103      2.22651      .   S
    N104   O105      1.18603      .   S
    Zr15   O105      2.22725      .   S
    N104   O106      1.02569      .   S
    Zr6    O106      2.10469      .   S
    N104   O107      1.18007      .   S
    Zr9    O107      2.21770  1_455   S
    N108   O109      1.18609      .   S
    Zr10   O109      2.22757      .   S
    N108   O110      1.02472      .   S
    Zr4    O110      2.10264      .   S
    N108   O111      1.18008      .   S
    Zr12   O111      2.21784      .   S
    N112   O113      1.02464      .   S
    Zr2    O113      2.10235      .   S
    N112   O114      1.18603      .   S
    Zr10   O114      2.22743      .   S
    N112   O115      1.18008      .   S
    Zr14   O115      2.21800      .   S
    N116   O117      1.02459      .   S
    Zr5    O117      2.10225      .   S
    N116   O118      1.18596      .   S
    Zr11   O118      2.22719      .   S
    N116   O119      1.18012      .   S
    Zr13   O119      2.21805      .   S
