# CIF file generated by openbabel 2.4.90, see http://openbabel.sf.net
data_I
_chemical_name_common ''
_cell_length_a 20.975
_cell_length_b 18.056
_cell_length_c 18.058
_cell_angle_alpha 120.058
_cell_angle_beta 90.008
_cell_angle_gamma 90.002
_space_group_name_H-M_alt 'P 1'
_space_group_name_Hall 'P 1'
loop_
    _symmetry_equiv_pos_as_xyz
    x,y,z
loop_
    _atom_site_label
    _atom_site_type_symbol
    _atom_site_fract_x
    _atom_site_fract_y
    _atom_site_fract_z
    _atom_site_occupancy
    Zn0     Zn   0.96103   0.92342   0.47000   1.000
    Zn1     Zn   0.12769   0.55051   0.07647   1.000
    Zn2     Zn   0.62769   0.55051   0.07647   1.000
    Zn3     Zn   0.29434   0.52569   0.44929   1.000
    Zn4     Zn   0.79435   0.52569   0.44929   1.000
    Zn5     Zn   0.21102   0.07653   0.52601   1.000
    Zn6     Zn   0.71102   0.07653   0.52601   1.000
    Zn7     Zn   0.37767   0.44956   0.92357   1.000
    Zn8     Zn   0.87767   0.44956   0.92357   1.000
    Zn9     Zn   0.04435   0.47425   0.55074   1.000
    Zn10    Zn   0.54436   0.47425   0.55074   1.000
    Zn11    Zn   0.46103   0.92342   0.47399   1.000
