# CIF file generated by openbabel 2.4.90, see http://openbabel.sf.net
data_I
_chemical_name_common ''
_cell_length_a 20.975
_cell_length_b 18.056
_cell_length_c 18.058
_cell_angle_alpha 120.058
_cell_angle_beta 90.008
_cell_angle_gamma 90.002
_space_group_name_H-M_alt 'P 1'
_space_group_name_Hall 'P 1'
loop_
    _symmetry_equiv_pos_as_xyz
    x,y,z
loop_
    _atom_site_label
    _atom_site_type_symbol
    _atom_site_fract_x
    _atom_site_fract_y
    _atom_site_fract_z
    _atom_site_occupancy
    Zr0     Zr   0.46103   0.92342   0.47399   1.000
    Zr1     Zr   0.96103   0.92342   0.47000   1.000
    Zr2     Zr   0.12769   0.55051   0.07647   1.000
    Zr3     Zr   0.62769   0.55051   0.07647   1.000
    Zr4     Zr   0.29434   0.52569   0.44929   1.000
    Zr5     Zr   0.79435   0.52569   0.44929   1.000
    Zr6     Zr   0.21102   0.07653   0.52601   1.000
    Zr7     Zr   0.71102   0.07653   0.52601   1.000
    Zr8     Zr   0.37767   0.44956   0.92357   1.000
    Zr9     Zr   0.87767   0.44956   0.92357   1.000
    Zr10    Zr   0.04435   0.47425   0.55074   1.000
    Zr11    Zr   0.54436   0.47425   0.55074   1.000
    N12     N    0.37270   0.53494   0.15702   1.000
    O13     O    0.47513   0.55113   0.11937   1.000
    O14     O    0.33868   0.51856   0.27101   1.000
    N15     N    0.95607   0.15698   0.62194   1.000
    O16     O    0.92204   0.27113   0.75232   1.000
    O17     O    0.05848   0.11932   0.56815   1.000
    N18     N    0.45607   0.15698   0.62196   1.000
    O19     O    0.42204   0.27113   0.75233   1.000
    O20     O    0.55848   0.11932   0.56816   1.000
    N21     N    0.78940   0.37801   0.53500   1.000
    O22     O    0.75538   0.24767   0.51879   1.000
    O23     O    0.89180   0.43197   0.55124   1.000
    N24     N    0.12271   0.46513   0.84301   1.000
    O25     O    0.22512   0.44894   0.88067   1.000
    O26     O    0.08869   0.48145   0.72902   1.000
    N27     N    0.28940   0.37801   0.53504   1.000
    O28     O    0.39180   0.43197   0.55126   1.000
    O29     O    0.25537   0.24767   0.51880   1.000
    N30     N    0.70610   0.84299   0.37793   1.000
    O31     O    0.67207   0.72890   0.24761   1.000
    O32     O    0.80849   0.88064   0.43078   1.000
    N33     N    0.62271   0.46513   0.84301   1.000
    O34     O    0.58870   0.48145   0.72902   1.000
    O35     O    0.72512   0.44894   0.88067   1.000
    N36     N    0.03939   0.62187   0.46492   1.000
    O37     O    0.14179   0.56793   0.44873   1.000
    O38     O    0.00537   0.75223   0.48016   1.000
    N39     N    0.87271   0.53494   0.15698   1.000
    O40     O    0.83868   0.51857   0.27099   1.000
    O41     O    0.97513   0.55113   0.11935   1.000
    N42     N    0.20610   0.84299   0.37793   1.000
    O43     O    0.30849   0.88064   0.43178   1.000
    O44     O    0.17207   0.72890   0.24761   1.000
    N45     N    0.53939   0.62187   0.46492   1.000
    O46     O    0.64179   0.56793   0.44873   1.000
    O47     O    0.50537   0.75223   0.48115   1.000
    O48     O    0.63678   0.49903   0.93769   1.000
    O49     O    0.97014   0.06227   0.56022   1.000
    O50     O    0.88677   0.50104   0.06233   1.000
    O51     O    0.05345   0.56126   0.49898   1.000
    O52     O    0.72015   0.93769   0.43871   1.000
    O53     O    0.55345   0.56126   0.49898   1.000
    O54     O    0.13677   0.49903   0.93769   1.000
    O55     O    0.38677   0.50104   0.06234   1.000
    O56     O    0.80346   0.43865   0.50099   1.000
    O57     O    0.22015   0.93769   0.43871   1.000
    O58     O    0.30345   0.43865   0.50100   1.000
    O59     O    0.47013   0.06227   0.56123   1.000
loop_
    _geom_bond_atom_site_label_1
    _geom_bond_atom_site_label_2
    _geom_bond_distance
    _geom_bond_site_symmetry_2
    _ccdc_geom_bond_type
    N12    O13       2.31569      .   S
    Zr3    O13       3.29132      .   S
    N12    O14       2.33329      .   S
    Zr4    O14       3.29116      .   S
    N15    O16       2.33245      .   S
    Zr9    O16       3.29077      .   S
    N15    O17       2.31481  1_655   S
    Zr6    O17       3.29024      .   S
    N18    O19       2.33238      .   S
    Zr8    O19       3.29072      .   S
    N18    O20       2.31488      .   S
    Zr7    O20       3.29029      .   S
    N21    O22       2.33310      .   S
    Zr7    O22       3.29163      .   S
    N21    O23       2.31551      .   S
    Zr10   O23       3.29067  1_455   S
    N24    O25       2.31531      .   S
    Zr8    O25       3.29082      .   S
    N24    O26       2.33253      .   S
    Zr10   O26       3.29023      .   S
    N27    O28       2.31556      .   S
    Zr11   O28       3.29080      .   S
    N27    O29       2.33298      .   S
    Zr6    O29       3.29146      .   S
    N30    O31       2.33117      .   S
    Zr3    O31       3.28929      .   S
    N30    O32       2.30973      .   S
    Zr1    O32       3.28417      .   S
    N33    O34       2.33239      .   S
    Zr11   O34       3.29026      .   S
    N33    O35       2.31533      .   S
    Zr9    O35       3.29084      .   S
    N36    O37       2.31555      .   S
    Zr4    O37       3.29075      .   S
    N36    O38       2.34019      .   S
    Zr1    O38       3.31988  1_655   S
    N39    O40       2.33356      .   S
    Zr5    O40       3.29144      .   S
    N39    O41       2.31553      .   S
    Zr2    O41       3.29119  1_455   S
    N42    O43       2.31458      .   S
    Zr0    O43       3.28988      .   S
    N42    O44       2.33118      .   S
    Zr2    O44       3.28929      .   S
    N45    O46       2.31556      .   S
    Zr5    O46       3.29076      .   S
    N45    O47       2.33333      .   S
    Zr0    O47       3.29204      .   S
    Zr3    O48       2.20175  1_554   S
    N33    O48       1.52853      .   S
    Zr1    O49       2.21008  1_565   S
    N15    O49       1.53110      .   S
    Zr9    O50       2.20122  1_556   S
    N39    O50       1.52827      .   S
    Zr10   O51       2.20200      .   S
    N36    O51       1.52889      .   S
    Zr7    O52       2.20166  1_545   S
    N30    O52       1.52811      .   S
    Zr11   O53       2.20199      .   S
    N45    O53       1.52888      .   S
    Zr2    O54       2.20171  1_554   S
    N24    O54       1.52849      .   S
    Zr8    O55       2.20149  1_556   S
    N12    O55       1.52853      .   S
    Zr5    O56       2.20173      .   S
    N21    O56       1.52858      .   S
    Zr6    O57       2.20164  1_545   S
    N42    O57       1.52810      .   S
    Zr4    O58       2.20199      .   S
    N27    O58       1.52882      .   S
    Zr0    O59       2.20160  1_565   S
    N18    O59       1.52819      .   S
