# CIF file generated by openbabel 2.4.90, see http://openbabel.sf.net
data_I
_chemical_name_common ''
_cell_length_a 20.975
_cell_length_b 18.056
_cell_length_c 18.058
_cell_angle_alpha 120.058
_cell_angle_beta 90.008
_cell_angle_gamma 90.002
_space_group_name_H-M_alt 'P 1'
_space_group_name_Hall 'P 1'
loop_
    _symmetry_equiv_pos_as_xyz
    x,y,z
loop_
    _atom_site_label
    _atom_site_type_symbol
    _atom_site_fract_x
    _atom_site_fract_y
    _atom_site_fract_z
    _atom_site_occupancy
    Zr0     Zr   0.46103   0.92342   0.47399   1.000
    Zr1     Zr   0.96103   0.92342   0.47000   1.000
    Zr2     Zr   0.12769   0.55051   0.07647   1.000
    Zr3     Zr   0.62769   0.55051   0.07647   1.000
    Zr4     Zr   0.29434   0.52569   0.44929   1.000
    Zr5     Zr   0.79435   0.52569   0.44929   1.000
    Zr6     Zr   0.21102   0.07653   0.52601   1.000
    Zr7     Zr   0.71102   0.07653   0.52601   1.000
    Zr8     Zr   0.37767   0.44956   0.92357   1.000
    Zr9     Zr   0.87767   0.44956   0.92357   1.000
    Zr10    Zr   0.04435   0.47425   0.55074   1.000
    Zr11    Zr   0.54436   0.47425   0.55074   1.000
    N12     N    0.37270   0.53494   0.15702   1.000
    O13     O    0.47513   0.55113   0.11937   1.000
    O14     O    0.33868   0.51856   0.27101   1.000
    O15     O    0.37326   0.50183   0.07308   1.000
    O16     O    0.40028   0.50026   0.05161   1.000
    N17     N    0.95607   0.15698   0.62194   1.000
    O18     O    0.98365   0.05153   0.55028   1.000
    O19     O    0.92204   0.27113   0.75232   1.000
    O20     O    0.95662   0.07302   0.57017   1.000
    O21     O    0.05848   0.11932   0.56815   1.000
    N22     N    0.45607   0.15698   0.62196   1.000
    O23     O    0.42204   0.27113   0.75233   1.000
    O24     O    0.55848   0.11932   0.56816   1.000
    O25     O    0.45662   0.07302   0.57117   1.000
    O26     O    0.48365   0.05153   0.55128   1.000
    N27     N    0.78940   0.37801   0.53500   1.000
    O28     O    0.78995   0.42870   0.50179   1.000
    O29     O    0.75538   0.24767   0.51879   1.000
    O30     O    0.81696   0.44859   0.50018   1.000
    O31     O    0.89180   0.43197   0.55124   1.000
    N32     N    0.12271   0.46513   0.84301   1.000
    O33     O    0.12326   0.49824   0.92694   1.000
    O34     O    0.15029   0.49981   0.94843   1.000
    O35     O    0.22512   0.44894   0.88067   1.000
    O36     O    0.08869   0.48145   0.72902   1.000
    N37     N    0.28940   0.37801   0.53504   1.000
    O38     O    0.39180   0.43197   0.55126   1.000
    O39     O    0.25537   0.24767   0.51880   1.000
    O40     O    0.31696   0.44859   0.50020   1.000
    O41     O    0.28994   0.42870   0.50181   1.000
    N42     N    0.70610   0.84299   0.37793   1.000
    O43     O    0.70664   0.92695   0.42876   1.000
    O44     O    0.67207   0.72890   0.24761   1.000
    O45     O    0.80849   0.88064   0.43078   1.000
    O46     O    0.73366   0.94844   0.44866   1.000
    N47     N    0.62271   0.46513   0.84301   1.000
    O48     O    0.58870   0.48145   0.72902   1.000
    O49     O    0.62327   0.49824   0.92694   1.000
    O50     O    0.65029   0.49981   0.94843   1.000
    O51     O    0.72512   0.44894   0.88067   1.000
    N52     N    0.03939   0.62187   0.46492   1.000
    O53     O    0.06696   0.55132   0.49980   1.000
    O54     O    0.03994   0.57120   0.49817   1.000
    O55     O    0.14179   0.56793   0.44873   1.000
    O56     O    0.00537   0.75223   0.48016   1.000
    N57     N    0.87271   0.53494   0.15698   1.000
    O58     O    0.83868   0.51857   0.27099   1.000
    O59     O    0.97513   0.55113   0.11935   1.000
    O60     O    0.90028   0.50026   0.05159   1.000
    O61     O    0.87326   0.50183   0.07306   1.000
    N62     N    0.20610   0.84299   0.37793   1.000
    O63     O    0.30849   0.88064   0.43178   1.000
    O64     O    0.17207   0.72890   0.24761   1.000
    O65     O    0.23366   0.94844   0.44866   1.000
    O66     O    0.20663   0.92695   0.42876   1.000
    N67     N    0.03077   0.32397   0.45875   1.000
    O68     O    0.03417   0.36154   0.48175   1.000
    N69     N    0.53077   0.32397   0.45875   1.000
    O70     O    0.53417   0.36154   0.48175   1.000
    N71     N    0.53939   0.62187   0.46492   1.000
    O72     O    0.56696   0.55132   0.49980   1.000
    O73     O    0.64179   0.56793   0.44873   1.000
    O74     O    0.50537   0.75223   0.48115   1.000
    O75     O    0.53995   0.57120   0.49817   1.000
    N76     N    0.69754   0.13466   0.67620   1.000
    O77     O    0.70091   0.12013   0.63865   1.000
    N78     N    0.36416   0.54173   0.86564   1.000
    O79     O    0.36754   0.51869   0.88012   1.000
    N80     N    0.28077   0.67596   0.54128   1.000
    O81     O    0.28417   0.63839   0.51828   1.000
    N82     N    0.78078   0.67596   0.54128   1.000
    O83     O    0.78417   0.63839   0.51828   1.000
    N84     N    0.19753   0.13467   0.67620   1.000
    O85     O    0.20091   0.12013   0.63865   1.000
    N86     N    0.61416   0.45836   0.13442   1.000
    O87     O    0.61754   0.48140   0.11993   1.000
    N88     N    0.44755   0.86529   0.32300   1.000
    O89     O    0.45092   0.87983   0.36075   1.000
    N90     N    0.94755   0.86529   0.32300   1.000
    O91     O    0.95092   0.87983   0.35975   1.000
    N92     N    0.86416   0.54173   0.86564   1.000
    O93     O    0.86754   0.51869   0.88012   1.000
    N94     N    0.11416   0.45836   0.13442   1.000
    O95     O    0.11754   0.48140   0.11993   1.000
loop_
    _geom_bond_atom_site_label_1
    _geom_bond_atom_site_label_2
    _geom_bond_distance
    _geom_bond_site_symmetry_2
    _ccdc_geom_bond_type
    N12    O13       2.31569      .   S
    Zr3    O13       3.29132      .   S
    N12    O14       2.33329      .   S
    Zr4    O14       3.29116      .   S
    N12    O15       1.32190      .   S
    Zr8    O15       2.37395  1_556   S
    N12    O16       1.77652      .   S
    Zr8    O16       2.07077  1_556   S
    N17    O18       1.77948      .   S
    Zr1    O18       2.07785  1_565   S
    N17    O19       2.33245      .   S
    Zr9    O19       3.29077      .   S
    N17    O20       1.32386      .   S
    Zr1    O20       2.38371  1_565   S
    N17    O21       2.31481  1_655   S
    Zr6    O21       3.29024      .   S
    N22    O23       2.33238      .   S
    Zr8    O23       3.29072      .   S
    N22    O24       2.31488      .   S
    Zr7    O24       3.29029      .   S
    N22    O25       1.32160      .   S
    Zr0    O25       2.37399  1_565   S
    N22    O26       1.77617      .   S
    Zr0    O26       2.07098  1_565   S
    N27    O28       1.32184      .   S
    Zr5    O28       2.37430      .   S
    N27    O29       2.33310      .   S
    Zr7    O29       3.29163      .   S
    N27    O30       1.77667      .   S
    Zr5    O30       2.07091      .   S
    N27    O31       2.31551      .   S
    Zr10   O31       3.29067  1_455   S
    N32    O33       1.32176      .   S
    Zr2    O33       2.37430  1_554   S
    N32    O34       1.77659      .   S
    Zr2    O34       2.07087  1_554   S
    N32    O35       2.31531      .   S
    Zr8    O35       3.29082      .   S
    N32    O36       2.33253      .   S
    Zr10   O36       3.29023      .   S
    N37    O38       2.31556      .   S
    Zr11   O38       3.29080      .   S
    N37    O39       2.33298      .   S
    Zr6    O39       3.29146      .   S
    N37    O40       1.77689      .   S
    Zr4    O40       2.07117      .   S
    N37    O41       1.32209      .   S
    Zr4    O41       2.37455      .   S
    N42    O43       1.32162      .   S
    Zr7    O43       2.37395  1_545   S
    N42    O44       2.33117      .   S
    Zr3    O44       3.28929      .   S
    N42    O45       2.30973      .   S
    Zr1    O45       3.28417      .   S
    N42    O46       1.77599      .   S
    Zr7    O46       2.07112  1_545   S
    N47    O48       2.33239      .   S
    Zr11   O48       3.29026      .   S
    N47    O49       1.32180      .   S
    Zr3    O49       2.37435  1_554   S
    N47    O50       1.77663      .   S
    Zr3    O50       2.07091  1_554   S
    N47    O51       2.31533      .   S
    Zr9    O51       3.29084      .   S
    N52    O53       1.77697      .   S
    Zr10   O53       2.07118      .   S
    N52    O54       1.32217      .   S
    Zr10   O54       2.37457      .   S
    N52    O55       2.31555      .   S
    Zr4    O55       3.29075      .   S
    N52    O56       2.34019      .   S
    Zr1    O56       3.31988  1_655   S
    N57    O58       2.33356      .   S
    Zr5    O58       3.29144      .   S
    N57    O59       2.31553      .   S
    Zr2    O59       3.29119  1_455   S
    N57    O60       1.77627      .   S
    Zr9    O60       2.07051  1_556   S
    N57    O61       1.32164      .   S
    Zr9    O61       2.37368  1_556   S
    N62    O63       2.31458      .   S
    Zr0    O63       3.28988      .   S
    N62    O64       2.33118      .   S
    Zr2    O64       3.28929      .   S
    N62    O65       1.77599      .   S
    Zr6    O65       2.07111  1_545   S
    N62    O66       1.32162      .   S
    Zr6    O66       2.37394  1_545   S
    N67    O68       0.59623      .   S
    Zr10   O68       1.78868      .   S
    N69    O70       0.59623      .   S
    Zr11   O70       1.78868      .   S
    N71    O72       1.77695      .   S
    Zr11   O72       2.07117      .   S
    N71    O73       2.31556      .   S
    Zr5    O73       3.29076      .   S
    N71    O74       2.33333      .   S
    Zr0    O74       3.29204      .   S
    N71    O75       1.32215      .   S
    Zr11   O75       2.37455      .   S
    N76    O77       0.59613      .   S
    Zr7    O77       1.78839      .   S
    N78    O79       0.59625      .   S
    Zr8    O79       1.78875      .   S
    N80    O81       0.59623      .   S
    Zr4    O81       1.78868      .   S
    N82    O83       0.59623      .   S
    Zr5    O83       1.78869      .   S
    N84    O85       0.59613      .   S
    Zr6    O85       1.78838      .   S
    N86    O87       0.59624      .   S
    Zr3    O87       1.78871      .   S
    N88    O89       0.59941      .   S
    Zr0    O89       1.79824      .   S
    N90    O91       0.58292      .   S
    Zr1    O91       1.74877      .   S
    N92    O93       0.59625      .   S
    Zr9    O93       1.78875      .   S
    N94    O95       0.59624      .   S
    Zr2    O95       1.78871      .   S
