# CIF file generated by openbabel 2.4.90, see http://openbabel.sf.net
data_I
_chemical_name_common ''
_cell_length_a 15.133
_cell_length_b 17.678
_cell_length_c 17.678
_cell_angle_alpha 90
_cell_angle_beta 90
_cell_angle_gamma 90
_space_group_name_H-M_alt 'P 1'
_space_group_name_Hall 'P 1'
loop_
    _symmetry_equiv_pos_as_xyz
    x,y,z
loop_
    _atom_site_label
    _atom_site_type_symbol
    _atom_site_fract_x
    _atom_site_fract_y
    _atom_site_fract_z
    _atom_site_occupancy
    C0      C    0.89677   0.86638   0.74295   1.000
    C1      C    0.91957   0.88125   0.04940   1.000
    O2      O    0.45305   0.85867   0.22061   1.000
    O3      O    0.30693   0.86569   0.25115   1.000
    O4      O    0.48583   0.88037   0.99365   1.000
    O5      O    0.40462   0.89312   0.88925   1.000
    C6      C    0.89815   0.14366   0.26648   1.000
    C7      C    0.91983   0.12853   0.95997   1.000
    C8      C    0.11441   0.74351   0.14360   1.000
    C9      C    0.09333   0.04953   0.12863   1.000
    C10     C    0.11469   0.26656   0.86576   1.000
    C11     C    0.09161   0.96055   0.88092   1.000
    C12     C    0.38993   0.86668   0.26644   1.000
    C13     C    0.41148   0.88072   0.95995   1.000
    C14     C    0.39029   0.14339   0.74295   1.000
    C15     C    0.41317   0.12917   0.04945   1.000
    C16     C    0.62120   0.74315   0.86578   1.000
    C17     C    0.60009   0.04913   0.88088   1.000
    C18     C    0.62266   0.26694   0.14368   1.000
    C19     C    0.59950   0.96094   0.12856   1.000
    O20     O    0.95984   0.85833   0.78883   1.000
    O21     O    0.81375   0.86537   0.75818   1.000
    O22     O    0.99396   0.88092   0.01582   1.000
    O23     O    0.91261   0.89353   0.12017   1.000
    O24     O    0.96126   0.15163   0.22063   1.000
    O25     O    0.81515   0.14479   0.25120   1.000
    O26     O    0.99420   0.12903   0.99363   1.000
    O27     O    0.91297   0.11635   0.88923   1.000
    O28     O    0.05157   0.78961   0.15154   1.000
    O29     O    0.19748   0.75857   0.14475   1.000
    O30     O    0.01896   0.01589   0.12939   1.000
    O31     O    0.10027   0.12030   0.11667   1.000
    O32     O    0.05187   0.22041   0.85788   1.000
    O33     O    0.19777   0.25155   0.86460   1.000
    O34     O    0.01720   0.99412   0.88009   1.000
    O35     O    0.09865   0.88978   0.89286   1.000
    O36     O    0.45337   0.15133   0.78885   1.000
    O37     O    0.30728   0.14447   0.75817   1.000
    O38     O    0.48755   0.12957   0.01582   1.000
    O39     O    0.40622   0.11684   0.12016   1.000
    O40     O    0.55835   0.78925   0.85790   1.000
    O41     O    0.70426   0.75820   0.86458   1.000
    O42     O    0.52572   0.01548   0.88009   1.000
    O43     O    0.60703   0.11990   0.89283   1.000
    O44     O    0.55981   0.22082   0.15159   1.000
    O45     O    0.70574   0.25191   0.14480   1.000
    O46     O    0.52509   0.99451   0.12937   1.000
    O47     O    0.60655   0.89017   0.11663   1.000
loop_
    _geom_bond_atom_site_label_1
    _geom_bond_atom_site_label_2
    _geom_bond_distance
    _geom_bond_site_symmetry_2
    _ccdc_geom_bond_type
    O38    C15       1.27301      .   S
    O22    C1        1.27267      .   S
    C1     O23       1.27412      .   S
    C15    O39       1.27322      .   S
    O47    C19       1.27317      .   S
    O31    C9        1.27314      .   S
    C19    O46       1.27291      .   S
    C9     O30       1.27295      .   S
    C8     O29       1.28511      .   S
    C8     O28       1.26033      .   S
    C18    O45       1.28516      .   S
    C18    O44       1.26046      .   S
    O2     C12       1.26048      .   S
    O24    C6        1.26048      .   S
    O3     C12       1.28487      .   S
    O25    C6        1.28499      .   S
    C0     O21       1.28490      .   S
    C0     O20       1.26060      .   S
    C14    O37       1.28490      .   S
    C14    O36       1.26061      .   S
    O32    C10       1.26045      .   S
    O40    C16       1.26030      .   S
    O41    C16       1.28509      .   S
    O33    C10       1.28511      .   S
    O34    C11       1.27287      .   S
    O42    C17       1.27295      .   S
    C17    O43       1.27314      .   S
    C11    O35       1.27322      .   S
    O27    C7        1.27319      .   S
    O5     C13       1.27315      .   S
    C13    O4        1.27312      .   S
    C7     O26       1.27304      .   S
