# CIF file generated by openbabel 2.4.90, see http://openbabel.sf.net
data_I
_chemical_name_common ''
_cell_length_a 15.133
_cell_length_b 17.678
_cell_length_c 17.678
_cell_angle_alpha 90
_cell_angle_beta 90
_cell_angle_gamma 90
_space_group_name_H-M_alt 'P 1'
_space_group_name_Hall 'P 1'
loop_
    _symmetry_equiv_pos_as_xyz
    x,y,z
loop_
    _atom_site_label
    _atom_site_type_symbol
    _atom_site_fract_x
    _atom_site_fract_y
    _atom_site_fract_z
    _atom_site_occupancy
    Zn0     Zn   0.98426   0.15145   0.10127   1.000
    Zn1     Zn   0.02864   0.90919   0.15118   1.000
    Zn2     Zn   0.02904   0.10083   0.85828   1.000
    Zn3     Zn   0.47599   0.85887   0.10125   1.000
    Zn4     Zn   0.47635   0.15108   0.90820   1.000
    Zn5     Zn   0.53541   0.90880   0.85832   1.000
    Zn6     Zn   0.53693   0.10121   0.15119   1.000
    Zn7     Zn   0.75839   0.86154   0.86121   1.000
    Zn8     Zn   0.75991   0.14854   0.14817   1.000
    Zn9     Zn   0.25160   0.86192   0.14814   1.000
    Zn10    Zn   0.25198   0.14819   0.86123   1.000
    Zn11    Zn   0.98277   0.85845   0.90818   1.000
    C12     C    0.89677   0.86638   0.74295   1.000
    C13     C    0.91957   0.88125   0.04940   1.000
    O14     O    0.45305   0.85867   0.22061   1.000
    O15     O    0.30693   0.86569   0.25115   1.000
    O16     O    0.48583   0.88037   0.99365   1.000
    O17     O    0.40462   0.89312   0.88925   1.000
    C18     C    0.89815   0.14366   0.26648   1.000
    C19     C    0.91983   0.12853   0.95997   1.000
    C20     C    0.11441   0.74351   0.14360   1.000
    C21     C    0.09333   0.04953   0.12863   1.000
    C22     C    0.11469   0.26656   0.86576   1.000
    C23     C    0.09161   0.96055   0.88092   1.000
    C24     C    0.38993   0.86668   0.26644   1.000
    C25     C    0.41148   0.88072   0.95995   1.000
    C26     C    0.39029   0.14339   0.74295   1.000
    C27     C    0.41317   0.12917   0.04945   1.000
    C28     C    0.62120   0.74315   0.86578   1.000
    C29     C    0.60009   0.04913   0.88088   1.000
    C30     C    0.62266   0.26694   0.14368   1.000
    C31     C    0.59950   0.96094   0.12856   1.000
    O32     O    0.95984   0.85833   0.78883   1.000
    O33     O    0.81375   0.86537   0.75818   1.000
    O34     O    0.99396   0.88092   0.01582   1.000
    O35     O    0.91261   0.89353   0.12017   1.000
    O36     O    0.96126   0.15163   0.22063   1.000
    O37     O    0.81515   0.14479   0.25120   1.000
    O38     O    0.99420   0.12903   0.99363   1.000
    O39     O    0.91297   0.11635   0.88923   1.000
    O40     O    0.05157   0.78961   0.15154   1.000
    O41     O    0.19748   0.75857   0.14475   1.000
    O42     O    0.01896   0.01589   0.12939   1.000
    O43     O    0.10027   0.12030   0.11667   1.000
    O44     O    0.05187   0.22041   0.85788   1.000
    O45     O    0.19777   0.25155   0.86460   1.000
    O46     O    0.01720   0.99412   0.88009   1.000
    O47     O    0.09865   0.88978   0.89286   1.000
    O48     O    0.45337   0.15133   0.78885   1.000
    O49     O    0.30728   0.14447   0.75817   1.000
    O50     O    0.48755   0.12957   0.01582   1.000
    O51     O    0.40622   0.11684   0.12016   1.000
    O52     O    0.55835   0.78925   0.85790   1.000
    O53     O    0.70426   0.75820   0.86458   1.000
    O54     O    0.52572   0.01548   0.88009   1.000
    O55     O    0.60703   0.11990   0.89283   1.000
    O56     O    0.55981   0.22082   0.15159   1.000
    O57     O    0.70574   0.25191   0.14480   1.000
    O58     O    0.52509   0.99451   0.12937   1.000
    O59     O    0.60655   0.89017   0.11663   1.000
loop_
    _geom_bond_atom_site_label_1
    _geom_bond_atom_site_label_2
    _geom_bond_distance
    _geom_bond_site_symmetry_2
    _ccdc_geom_bond_type
    O50    C27       1.27301      .   S
    O50    Zn4       1.94754  1_554   S
    O34    C13       1.27267      .   S
    O34    Zn11      1.95121  1_554   S
    C13    O35       1.27412      .   S
    C27    O51       1.27322      .   S
    Zn3    O59       2.06971      .   S
    Zn3    O14       2.13843      .   S
    Zn3    O16       1.94548  1_554   S
    Zn0    O43       1.85993  1_655   S
    Zn0    O36       2.13858      .   S
    Zn0    O38       1.94953  1_554   S
    O59    C31       1.27317      .   S
    O43    C21       1.27314      .   S
    O51    Zn6       2.07114      .   S
    O35    Zn1       1.86015  1_655   S
    C31    O58       1.27291      .   S
    C21    O42       1.27295      .   S
    O58    Zn6       1.93371  1_565   S
    O42    Zn1       1.93063  1_545   S
    C20    O41       1.28511      .   S
    C20    O40       1.26033      .   S
    C30    O57       1.28516      .   S
    C30    O56       1.26046      .   S
    O41    Zn9       2.00314      .   S
    O57    Zn8       2.00365      .   S
    Zn9    O15       2.00542      .   S
    Zn8    O37       2.00508      .   S
    Zn1    O40       2.14223      .   S
    Zn6    O56       2.14248      .   S
    O14    C24       1.26048      .   S
    O36    C18       1.26048      .   S
    O15    C24       1.28487      .   S
    O37    C18       1.28499      .   S
    C12    O33       1.28490      .   S
    C12    O32       1.26060      .   S
    C26    O49       1.28490      .   S
    C26    O48       1.26061      .   S
    O49    Zn10      2.00596      .   S
    O33    Zn7       2.00595      .   S
    O32    Zn11      2.13821      .   S
    O48    Zn4       2.13834      .   S
    O44    Zn2       2.14201      .   S
    O44    C22       1.26045      .   S
    O52    Zn5       2.14170      .   S
    O52    C28       1.26030      .   S
    Zn2    O46       1.93373  1_545   S
    Zn2    O39       1.86013  1_455   S
    Zn5    O54       1.93038  1_565   S
    Zn5    O17       2.07197      .   S
    Zn7    O53       2.00298      .   S
    Zn10   O45       2.00386      .   S
    O53    C28       1.28509      .   S
    O45    C22       1.28511      .   S
    O46    C23       1.27287      .   S
    O54    C29       1.27295      .   S
    C29    O55       1.27314      .   S
    C23    O47       1.27322      .   S
    O39    C19       1.27319      .   S
    O17    C25       1.27315      .   S
    O55    Zn4       2.07096      .   S
    O47    Zn11      1.85886  1_455   S
    C25    O16       1.27312      .   S
    C19    O38       1.27304      .   S
