# CIF file generated by openbabel 2.4.90, see http://openbabel.sf.net
data_I
_chemical_name_common ''
_cell_length_a 15.133
_cell_length_b 17.678
_cell_length_c 17.678
_cell_angle_alpha 90
_cell_angle_beta 90
_cell_angle_gamma 90
_space_group_name_H-M_alt 'P 1'
_space_group_name_Hall 'P 1'
loop_
    _symmetry_equiv_pos_as_xyz
    x,y,z
loop_
    _atom_site_label
    _atom_site_type_symbol
    _atom_site_fract_x
    _atom_site_fract_y
    _atom_site_fract_z
    _atom_site_occupancy
    C0      C    0.89677   0.86638   0.74295   1.000
    C1      C    0.91957   0.88125   0.04940   1.000
    C2      C    0.89815   0.14366   0.26648   1.000
    C3      C    0.91983   0.12853   0.95997   1.000
    C4      C    0.11441   0.74351   0.14360   1.000
    C5      C    0.09333   0.04953   0.12863   1.000
    C6      C    0.11469   0.26656   0.86576   1.000
    C7      C    0.09161   0.96055   0.88092   1.000
    C8      C    0.38993   0.86668   0.26644   1.000
    C9      C    0.41148   0.88072   0.95995   1.000
    C10     C    0.39029   0.14339   0.74295   1.000
    C11     C    0.41317   0.12917   0.04945   1.000
    C12     C    0.62120   0.74315   0.86578   1.000
    C13     C    0.60009   0.04913   0.88088   1.000
    C14     C    0.62266   0.26694   0.14368   1.000
    C15     C    0.59950   0.96094   0.12856   1.000
