# CIF file generated by openbabel 2.4.90, see http://openbabel.sf.net
data_I
_chemical_name_common ''
_cell_length_a 21.511
_cell_length_b 12.442
_cell_length_c 26.091
_cell_angle_alpha 91.126
_cell_angle_beta 89.998
_cell_angle_gamma 89.989
_space_group_name_H-M_alt 'P 1'
_space_group_name_Hall 'P 1'
loop_
    _symmetry_equiv_pos_as_xyz
    x,y,z
loop_
    _atom_site_label
    _atom_site_type_symbol
    _atom_site_fract_x
    _atom_site_fract_y
    _atom_site_fract_z
    _atom_site_occupancy
    H0      H    0.31331   0.98395   0.16189   1.000
    H1      H    0.81214   0.98429   0.16187   1.000
    H2      H    0.18254   0.95600   0.20738   1.000
    H3      H    0.68143   0.95578   0.20739   1.000
    H4      H    0.17459   0.86431   0.28630   1.000
    H5      H    0.67353   0.86413   0.28626   1.000
    H6      H    0.22000   0.78025   0.36260   1.000
    H7      H    0.71894   0.78018   0.36260   1.000
    H8      H    0.40312   0.86561   0.31006   1.000
    H9      H    0.90204   0.86593   0.31015   1.000
    H10     H    0.35783   0.94864   0.23377   1.000
    H11     H    0.85674   0.94882   0.23382   1.000
    H12     H    0.26910   0.69408   0.42554   1.000
    H13     H    0.76802   0.69416   0.42558   1.000
    H14     H    0.39644   0.77001   0.38586   1.000
    H15     H    0.89536   0.77028   0.38596   1.000
    H16     H    0.34937   0.18228   0.50813   1.000
    H17     H    0.84886   0.18174   0.50796   1.000
    H18     H    0.48093   0.27083   0.52985   1.000
    H19     H    0.98026   0.27078   0.52981   1.000
    H20     H    0.06462   0.15607   0.52730   1.000
    H21     H    0.56500   0.15554   0.52730   1.000
    H22     H    0.38581   0.02151   0.48942   1.000
    H23     H    0.88576   0.02057   0.48930   1.000
    H24     H    0.27963   0.76736   0.56983   1.000
    H25     H    0.77939   0.76765   0.57016   1.000
    H26     H    0.27948   0.96171   0.60081   1.000
    H27     H    0.77973   0.96193   0.60120   1.000
    H28     H    0.37934   0.04445   0.63018   1.000
    H29     H    0.87987   0.04403   0.63036   1.000
    H30     H    0.13789   0.72309   0.62010   1.000
    H31     H    0.63802   0.72501   0.62065   1.000
    H32     H    0.12416   0.53788   0.58532   1.000
    H33     H    0.62482   0.53972   0.58585   1.000
    H34     H    0.01695   0.47359   0.56096   1.000
    H35     H    0.51776   0.47473   0.56126   1.000
    H36     H    0.49544   0.02228   0.64587   1.000
    H37     H    0.99597   0.02113   0.64578   1.000
    H38     H    0.08893   0.90439   0.64286   1.000
    H39     H    0.58864   0.90610   0.64322   1.000
    H40     H    0.31318   0.51592   0.33794   1.000
    H41     H    0.81229   0.51567   0.33810   1.000
    H42     H    0.18231   0.54413   0.29268   1.000
    H43     H    0.68157   0.54438   0.29265   1.000
    H44     H    0.17426   0.63607   0.21377   1.000
    H45     H    0.67365   0.63638   0.21387   1.000
    H46     H    0.21962   0.72001   0.13739   1.000
    H47     H    0.71902   0.72027   0.13700   1.000
    H48     H    0.40274   0.63375   0.18965   1.000
    H49     H    0.90211   0.63366   0.18969   1.000
    H50     H    0.35750   0.55082   0.26598   1.000
    H51     H    0.85685   0.55081   0.26600   1.000
    H52     H    0.26880   0.80588   0.07430   1.000
    H53     H    0.76806   0.80591   0.07440   1.000
    H54     H    0.39608   0.72965   0.11402   1.000
    H55     H    0.89541   0.72965   0.11398   1.000
    H56     H    0.34936   0.31775   0.99207   1.000
    H57     H    0.84891   0.31831   0.99203   1.000
    H58     H    0.48098   0.22888   0.97082   1.000
    H59     H    0.98032   0.22926   0.97013   1.000
    H60     H    0.06466   0.34394   0.97271   1.000
    H61     H    0.56499   0.34431   0.97278   1.000
    H62     H    0.38585   0.47858   0.01084   1.000
    H63     H    0.88575   0.47951   0.01055   1.000
    H64     H    0.27986   0.73262   0.93012   1.000
    H65     H    0.77939   0.73259   0.92970   1.000
    H66     H    0.27985   0.53832   0.89908   1.000
    H67     H    0.77973   0.53834   0.89860   1.000
    H68     H    0.37977   0.45579   0.86963   1.000
    H69     H    0.87988   0.45616   0.86947   1.000
    H70     H    0.13791   0.77687   0.87987   1.000
    H71     H    0.63810   0.77588   0.87887   1.000
    H72     H    0.12417   0.96210   0.91465   1.000
    H73     H    0.62476   0.96107   0.91300   1.000
    H74     H    0.01694   0.02641   0.93901   1.000
    H75     H    0.51773   0.02568   0.93862   1.000
    H76     H    0.49584   0.47820   0.85388   1.000
    H77     H    0.99599   0.47893   0.85413   1.000
    H78     H    0.08897   0.59560   0.85710   1.000
    H79     H    0.58891   0.59466   0.85639   1.000
    H80     H    0.18788   0.01576   0.83800   1.000
    H81     H    0.68671   0.01610   0.83807   1.000
    H82     H    0.31859   0.04427   0.79258   1.000
    H83     H    0.81748   0.04405   0.79250   1.000
    H84     H    0.32649   0.13592   0.71371   1.000
    H85     H    0.82543   0.13574   0.71367   1.000
    H86     H    0.28108   0.21987   0.63735   1.000
    H87     H    0.78002   0.21981   0.63734   1.000
    C88     C    0.88597   0.23835   0.51772   1.000
    C89     C    0.44679   0.20854   0.52033   1.000
    C90     C    0.94622   0.20835   0.52025   1.000
    C91     C    0.47208   0.10172   0.51011   1.000
    H92     H    0.09798   0.13413   0.68982   1.000
    H93     H    0.59690   0.13444   0.68990   1.000
    H94     H    0.14327   0.05124   0.76615   1.000
    H95     H    0.64219   0.05142   0.76620   1.000
    H96     H    0.23200   0.30589   0.57439   1.000
    H97     H    0.73092   0.30597   0.57443   1.000
    H98     H    0.10466   0.22977   0.61401   1.000
    H99     H    0.60358   0.23004   0.61411   1.000
    H100    H    0.15116   0.81829   0.49201   1.000
    H101    H    0.65065   0.81776   0.49184   1.000
    H102    H    0.01976   0.72926   0.47016   1.000
    H103    H    0.51909   0.72922   0.47010   1.000
    H104    H    0.43502   0.84450   0.47262   1.000
    H105    H    0.93540   0.84397   0.47267   1.000
    H106    H    0.11426   0.97947   0.51061   1.000
    H107    H    0.61421   0.97853   0.51056   1.000
    H108    H    0.22063   0.23240   0.42980   1.000
    H109    H    0.72039   0.23268   0.43013   1.000
    H110    H    0.22028   0.03810   0.39877   1.000
    H111    H    0.72053   0.03833   0.39917   1.000
    H112    H    0.12014   0.95601   0.36961   1.000
    H113    H    0.62067   0.95558   0.36980   1.000
    H114    H    0.36199   0.27504   0.37932   1.000
    H115    H    0.86212   0.27695   0.37988   1.000
    H116    H    0.37520   0.46033   0.41412   1.000
    H117    H    0.87586   0.46217   0.41465   1.000
    H118    H    0.48225   0.52532   0.43870   1.000
    H119    H    0.98308   0.52645   0.43900   1.000
    C120    C    0.38660   0.26116   0.98263   1.000
    C121    C    0.88602   0.26169   0.98225   1.000
    C122    C    0.44681   0.29126   0.98015   1.000
    H123    H    0.00405   0.97890   0.35420   1.000
    H124    H    0.50457   0.97775   0.35411   1.000
    H125    H    0.41137   0.09395   0.35675   1.000
    H126    H    0.91108   0.09565   0.35710   1.000
    H127    H    0.18772   0.48438   0.66184   1.000
    H128    H    0.68683   0.48412   0.66200   1.000
    H129    H    0.31844   0.45567   0.70732   1.000
    H130    H    0.81771   0.45593   0.70729   1.000
    H131    H    0.32637   0.36367   0.78609   1.000
    H132    H    0.82576   0.36399   0.78620   1.000
    H133    H    0.28100   0.27978   0.86247   1.000
    H134    H    0.78040   0.28004   0.86258   1.000
    H135    H    0.09791   0.36639   0.81028   1.000
    H136    H    0.59728   0.36630   0.81032   1.000
    H137    H    0.14317   0.44924   0.73392   1.000
    H138    H    0.64252   0.44923   0.73398   1.000
    H139    H    0.23195   0.19413   0.92555   1.000
    H140    H    0.73122   0.19417   0.92567   1.000
    H141    H    0.10461   0.27040   0.88598   1.000
    H142    H    0.60394   0.27040   0.88595   1.000
    H143    H    0.15112   0.68173   0.00794   1.000
    H144    H    0.65066   0.68229   0.00700   1.000
    H145    H    0.01971   0.77078   0.02984   1.000
    H146    H    0.51905   0.77117   0.02915   1.000
    H147    H    0.43503   0.65573   0.02719   1.000
    H148    H    0.93536   0.65610   0.02726   1.000
    H149    H    0.11427   0.52053   0.98942   1.000
    H150    H    0.61417   0.52147   0.98913   1.000
    H151    H    0.22063   0.26746   0.07026   1.000
    H152    H    0.72016   0.26743   0.06985   1.000
    H153    H    0.22030   0.46171   0.10137   1.000
    H154    H    0.72017   0.46173   0.10089   1.000
    H155    H    0.12014   0.54387   0.13051   1.000
    H156    H    0.62025   0.54426   0.13034   1.000
    H157    H    0.36192   0.22416   0.12110   1.000
    H158    H    0.86211   0.22317   0.12010   1.000
    H159    H    0.37526   0.03898   0.08617   1.000
    H160    H    0.87585   0.03794   0.08532   1.000
    H161    H    0.48229   0.97437   0.06134   1.000
    H162    H    0.98308   0.97363   0.06096   1.000
    H163    H    0.00403   0.52111   0.14585   1.000
    H164    H    0.50418   0.52185   0.14609   1.000
    H165    H    0.41111   0.40538   0.14358   1.000
    H166    H    0.91106   0.40443   0.14288   1.000
    C167    C    0.26281   0.98631   0.16522   1.000
    C168    C    0.76164   0.98642   0.16522   1.000
    C169    C    0.23339   0.95385   0.20790   1.000
    C170    C    0.73228   0.95380   0.20790   1.000
    C171    C    0.26243   0.91187   0.25383   1.000
    C172    C    0.76135   0.91188   0.25383   1.000
    C173    C    0.22490   0.86510   0.29181   1.000
    C174    C    0.72384   0.86503   0.29180   1.000
    C175    C    0.25038   0.81795   0.33477   1.000
    C176    C    0.74932   0.81794   0.33477   1.000
    C177    C    0.31535   0.81601   0.34206   1.000
    C178    C    0.81428   0.81615   0.34211   1.000
    C179    C    0.35275   0.86578   0.30480   1.000
    C180    C    0.85167   0.86599   0.30494   1.000
    C181    C    0.32725   0.91224   0.26186   1.000
    C182    C    0.82617   0.91238   0.26100   1.000
    C183    C    0.31908   0.70653   0.42226   1.000
    C184    C    0.81800   0.70669   0.42232   1.000
    C185    C    0.34569   0.76369   0.38466   1.000
    C186    C    0.84461   0.76389   0.38470   1.000
    C187    C    0.38659   0.23870   0.51784   1.000
    C188    C    0.57254   0.28926   0.10031   1.000
    C189    C    0.01865   0.22072   0.09827   1.000
    C190    C    0.51831   0.22132   0.09864   1.000
    C191    C    0.46003   0.26382   0.11438   1.000
    C192    C    0.96024   0.26308   0.11379   1.000
    C193    C    0.40798   0.19483   0.11025   1.000
    C194    C    0.90827   0.19398   0.10944   1.000
    C195    C    0.41548   0.09119   0.09133   1.000
    C196    C    0.97179   0.10162   0.51006   1.000
    C197    C    0.03660   0.08681   0.51556   1.000
    C198    C    0.53685   0.08648   0.51558   1.000
    C199    C    0.43591   0.01276   0.49418   1.000
    C200    C    0.93588   0.01228   0.49415   1.000
    C201    C    0.32185   0.80674   0.58392   1.000
    C202    C    0.82174   0.80675   0.58410   1.000
    C203    C    0.32229   0.91485   0.60090   1.000
    C204    C    0.82245   0.91483   0.60117   1.000
    C205    C    0.37756   0.96041   0.61759   1.000
    C206    C    0.87787   0.96001   0.61774   1.000
    C207    C    0.43241   0.89803   0.61763   1.000
    C208    C    0.93260   0.89731   0.61763   1.000
    C209    C    0.42727   0.78954   0.60016   1.000
    C210    C    0.92719   0.78887   0.60013   1.000
    C211    C    0.48158   0.72173   0.59840   1.000
    C212    C    0.98135   0.72074   0.59825   1.000
    C213    C    0.03976   0.76306   0.61377   1.000
    C214    C    0.53985   0.76441   0.61408   1.000
    C215    C    0.09174   0.69393   0.60943   1.000
    C216    C    0.59196   0.69556   0.60987   1.000
    C217    C    0.08404   0.59029   0.59056   1.000
    C218    C    0.58454   0.59185   0.59101   1.000
    C219    C    0.02430   0.55460   0.57639   1.000
    C220    C    0.52493   0.55579   0.57670   1.000
    C221    C    0.49189   0.93837   0.63333   1.000
    C222    C    0.99220   0.93727   0.63321   1.000
    C223    C    0.04361   0.87268   0.63142   1.000
    C224    C    0.54342   0.87409   0.63169   1.000
    C225    C    0.26267   0.51365   0.33470   1.000
    C226    C    0.76179   0.51357   0.33478   1.000
    C227    C    0.23316   0.54618   0.29207   1.000
    C228    C    0.73242   0.54629   0.29211   1.000
    C229    C    0.26211   0.58807   0.24609   1.000
    C230    C    0.76147   0.58820   0.24617   1.000
    C231    C    0.22456   0.63505   0.20810   1.000
    C232    C    0.72394   0.63527   0.20827   1.000
    C233    C    0.25002   0.68214   0.16519   1.000
    C234    C    0.74940   0.68232   0.16528   1.000
    C235    C    0.31497   0.68380   0.15781   1.000
    C236    C    0.81435   0.68387   0.15787   1.000
    C237    C    0.35238   0.63380   0.19491   1.000
    C238    C    0.85175   0.63381   0.19496   1.000
    C239    C    0.32691   0.58740   0.23796   1.000
    C240    C    0.82627   0.58745   0.23800   1.000
    C241    C    0.31877   0.79335   0.07762   1.000
    C242    C    0.81804   0.79336   0.07766   1.000
    C243    C    0.34533   0.73608   0.11521   1.000
    C244    C    0.84467   0.73611   0.11523   1.000
    C245    C    0.94626   0.29169   0.97970   1.000
    C246    C    0.47209   0.39820   0.99011   1.000
    C247    C    0.97181   0.39842   0.98990   1.000
    C248    C    0.03663   0.41321   0.98440   1.000
    C249    C    0.53684   0.41344   0.98440   1.000
    C250    C    0.43593   0.48729   0.00595   1.000
    C251    C    0.93588   0.48778   0.00579   1.000
    C252    C    0.32210   0.69334   0.91599   1.000
    C253    C    0.82174   0.69346   0.91572   1.000
    C254    C    0.32262   0.58525   0.89898   1.000
    C255    C    0.82245   0.58540   0.89867   1.000
    C256    C    0.37791   0.53982   0.88225   1.000
    C257    C    0.87787   0.54017   0.88210   1.000
    C258    C    0.43271   0.60231   0.88217   1.000
    C259    C    0.93262   0.60281   0.88227   1.000
    C260    C    0.42748   0.71078   0.89966   1.000
    C261    C    0.92720   0.71123   0.89979   1.000
    C262    C    0.48171   0.77872   0.90133   1.000
    C263    C    0.98137   0.77932   0.90170   1.000
    C264    C    0.03978   0.73696   0.88618   1.000
    C265    C    0.53999   0.73622   0.88550   1.000
    C266    C    0.09176   0.80606   0.89053   1.000
    C267    C    0.59204   0.80521   0.88972   1.000
    C268    C    0.08405   0.90970   0.90940   1.000
    C269    C    0.58454   0.90886   0.90864   1.000
    C270    C    0.02431   0.94542   0.92357   1.000
    C271    C    0.52493   0.94472   0.92300   1.000
    C272    C    0.49220   0.56211   0.86641   1.000
    C273    C    0.99223   0.56280   0.86671   1.000
    C274    C    0.04364   0.62735   0.86852   1.000
    C275    C    0.54366   0.62655   0.86790   1.000
    C276    C    0.23838   0.01362   0.83475   1.000
    C277    C    0.73721   0.01374   0.83475   1.000
    C278    C    0.26774   0.04625   0.79207   1.000
    C279    C    0.76663   0.04621   0.79207   1.000
    C280    C    0.23867   0.08817   0.74614   1.000
    C281    C    0.73759   0.08818   0.74614   1.000
    C282    C    0.27618   0.13502   0.70817   1.000
    C283    C    0.77512   0.13495   0.70816   1.000
    C284    C    0.25070   0.18211   0.66519   1.000
    C285    C    0.74963   0.18210   0.66520   1.000
    C286    C    0.18574   0.18390   0.65786   1.000
    C287    C    0.68467   0.18404   0.65791   1.000
    C288    C    0.14835   0.13407   0.69502   1.000
    C289    C    0.64727   0.13427   0.69508   1.000
    C290    C    0.17385   0.08767   0.73807   1.000
    C291    C    0.67277   0.08781   0.73811   1.000
    C292    C    0.18202   0.29335   0.57765   1.000
    C293    C    0.68094   0.29351   0.57771   1.000
    C294    C    0.15541   0.23616   0.61523   1.000
    C295    C    0.65433   0.23636   0.61531   1.000
    C296    C    0.11405   0.76169   0.48225   1.000
    C297    C    0.61343   0.76134   0.48213   1.000
    C298    C    0.05380   0.79170   0.47972   1.000
    C299    C    0.55323   0.79150   0.47964   1.000
    C300    C    0.02823   0.89842   0.48992   1.000
    C301    C    0.52794   0.89831   0.48987   1.000
    C302    C    0.46317   0.91356   0.48439   1.000
    C303    C    0.96342   0.91323   0.48442   1.000
    C304    C    0.06414   0.98776   0.50582   1.000
    C305    C    0.56411   0.98728   0.50579   1.000
    C306    C    0.17828   0.19329   0.41581   1.000
    C307    C    0.67816   0.19329   0.41605   1.000
    C308    C    0.17757   0.08521   0.39880   1.000
    C309    C    0.67772   0.08518   0.39900   1.000
    C310    C    0.12215   0.04002   0.38223   1.000
    C311    C    0.62245   0.03963   0.38239   1.000
    C312    C    0.06742   0.10273   0.38234   1.000
    C313    C    0.56760   0.10201   0.38234   1.000
    C314    C    0.07283   0.21117   0.39984   1.000
    C315    C    0.57274   0.21050   0.39980   1.000
    C316    C    0.01867   0.27930   0.40172   1.000
    C317    C    0.51843   0.27831   0.40153   1.000
    C318    C    0.46016   0.23564   0.38589   1.000
    C319    C    0.96026   0.23698   0.38620   1.000
    C320    C    0.40805   0.30449   0.39009   1.000
    C321    C    0.90828   0.30611   0.39054   1.000
    C322    C    0.41548   0.40820   0.40896   1.000
    C323    C    0.91598   0.40975   0.40941   1.000
    C324    C    0.47509   0.44426   0.42326   1.000
    C325    C    0.97572   0.44544   0.42358   1.000
    C326    C    0.00781   0.06277   0.36670   1.000
    C327    C    0.50812   0.06166   0.36665   1.000
    C328    C    0.45659   0.12596   0.36828   1.000
    C329    C    0.95641   0.12736   0.36855   1.000
    C330    C    0.23823   0.48647   0.66519   1.000
    C331    C    0.73734   0.48639   0.66527   1.000
    C332    C    0.26759   0.45376   0.70780   1.000
    C333    C    0.76686   0.45387   0.70790   1.000
    C334    C    0.23855   0.41185   0.75380   1.000
    C335    C    0.73791   0.41198   0.75388   1.000
    C336    C    0.27608   0.36478   0.79170   1.000
    C337    C    0.77546   0.36500   0.79179   1.000
    C338    C    0.25062   0.31773   0.83469   1.000
    C339    C    0.75001   0.31792   0.83478   1.000
    C340    C    0.18567   0.31618   0.84210   1.000
    C341    C    0.68505   0.31625   0.84216   1.000
    C342    C    0.14827   0.36624   0.80501   1.000
    C343    C    0.64764   0.36625   0.80506   1.000
    C344    C    0.17375   0.41260   0.76194   1.000
    C345    C    0.67311   0.41265   0.76201   1.000
    C346    C    0.18198   0.20669   0.92230   1.000
    C347    C    0.68125   0.20670   0.92235   1.000
    C348    C    0.15535   0.26394   0.88474   1.000
    C349    C    0.65470   0.26397   0.88476   1.000
    C350    C    0.11400   0.73834   0.01772   1.000
    C351    C    0.61341   0.73889   0.01734   1.000
    C352    C    0.05376   0.70835   0.02027   1.000
    C353    C    0.55321   0.70878   0.01982   1.000
    C354    C    0.02821   0.60162   0.01007   1.000
    C355    C    0.52793   0.60185   0.00980   1.000
    C356    C    0.46318   0.58661   0.01548   1.000
    C357    C    0.96340   0.58683   0.01554   1.000
    C358    C    0.06414   0.51226   0.99418   1.000
    C359    C    0.56409   0.51275   0.99402   1.000
    C360    C    0.17828   0.30659   0.08425   1.000
    C361    C    0.67792   0.30671   0.08398   1.000
    C362    C    0.17757   0.41464   0.10130   1.000
    C363    C    0.67740   0.41480   0.10099   1.000
    C364    C    0.12215   0.45987   0.11786   1.000
    C365    C    0.62211   0.46022   0.11772   1.000
    C366    C    0.06740   0.39723   0.11770   1.000
    C367    C    0.56731   0.39773   0.11780   1.000
    C368    C    0.07282   0.28881   0.10018   1.000
    C369    C    0.91597   0.09034   0.09056   1.000
    C370    C    0.47509   0.05532   0.07689   1.000
    C371    C    0.97572   0.05462   0.07639   1.000
    C372    C    0.00779   0.43724   0.13327   1.000
    C373    C    0.50782   0.43793   0.13356   1.000
    C374    C    0.45635   0.37349   0.13199   1.000
    C375    C    0.95639   0.37269   0.13145   1.000
    N376    N    0.37292   0.74617   0.58373   1.000
    N377    N    0.87269   0.74587   0.58382   1.000
    N378    N    0.47476   0.61880   0.58067   1.000
    N379    N    0.97425   0.61787   0.58047   1.000
    N380    N    0.37312   0.75402   0.91615   1.000
    N381    N    0.87270   0.75428   0.91609   1.000
    N382    N    0.47482   0.88161   0.91916   1.000
    N383    N    0.97426   0.88218   0.91948   1.000
    N384    N    0.12733   0.25417   0.41615   1.000
    N385    N    0.62709   0.25387   0.41623   1.000
    N386    N    0.02577   0.38217   0.41950   1.000
    N387    N    0.52525   0.38124   0.41930   1.000
    N388    N    0.12732   0.24577   0.08380   1.000
    N389    N    0.62690   0.24603   0.08382   1.000
    N390    N    0.02576   0.11786   0.08040   1.000
    N391    N    0.52520   0.11843   0.08081   1.000
loop_
    _geom_bond_atom_site_label_1
    _geom_bond_atom_site_label_2
    _geom_bond_distance
    _geom_bond_site_symmetry_2
    _ccdc_geom_bond_type
    C251   H63       1.09058      .   S
    C251   C357      1.38620      .   S
    C251   C247      1.40957  1_554   S
    C250   H62       1.09052      .   S
    C250   C356      1.38581      .   S
    C250   C246      1.40944  1_554   S
    H144   C351      1.09668      .   S
    H143   C350      1.09153      .   S
    C355   C356      1.41380      .   S
    C355   C353      1.45628      .   S
    C355   C359      1.40902  1_554   S
    C354   C357      1.41400  1_455   S
    C354   C352      1.45688      .   S
    C354   C358      1.40956  1_554   S
    C356   H147      1.09053      .   S
    C357   H148      1.09064      .   S
    C351   C353      1.35014      .   S
    C350   C352      1.35057      .   S
    C353   H146      1.09278      .   S
    C352   H145      1.09291      .   S
    H162   C371      1.08936  1_565   S
    H161   C370      1.08952  1_565   S
    H152   C361      1.09235      .   S
    H151   C360      1.09234      .   S
    H52    C241      1.08982      .   S
    H53    C242      1.08985      .   S
    C371   N390      1.33648  1_655   S
    C371   C369      1.40679      .   S
    C370   N391      1.33648      .   S
    C370   C195      1.40663      .   S
    C241   C243      1.35027      .   S
    C242   C244      1.35039      .   S
    N390   C189      1.36203      .   S
    N391   C190      1.36152      .   S
    N388   C360      1.33206      .   S
    N388   C368      1.35450      .   S
    N389   C361      1.33204      .   S
    N389   C188      1.35373      .   S
    C361   C363      1.40790      .   S
    C360   C362      1.40783      .   S
    H160   C369      1.08870      .   S
    H159   C195      1.08882      .   S
    C369   C194      1.38123      .   S
    C195   C193      1.38111      .   S
    C189   C368      1.44098      .   S
    C189   C192      1.41837  1_455   S
    C190   C188      1.44095      .   S
    C190   C191      1.41816      .   S
    C368   C366      1.42054      .   S
    C188   C367      1.42059      .   S
    H154   C363      1.08981      .   S
    C363   C365      1.38373      .   S
    C362   H153      1.08979      .   S
    C362   C364      1.38375      .   S
    C194   C192      1.41365      .   S
    C194   H158      1.09131      .   S
    C193   C191      1.41368      .   S
    C193   H157      1.09131      .   S
    C192   C375      1.43331      .   S
    H55    C244      1.09504      .   S
    H54    C243      1.09503      .   S
    C191   C374      1.43335      .   S
    C243   C235      1.45377      .   S
    C244   C236      1.45392      .   S
    C366   C364      1.41226      .   S
    C366   C372      1.43137      .   S
    C365   C367      1.41225      .   S
    C365   H156      1.09072      .   S
    C367   C373      1.43133      .   S
    C364   H155      1.09073      .   S
    C375   C372      1.36710  1_655   S
    C375   H166      1.09132      .   S
    C374   C373      1.36709      .   S
    C374   H165      1.09136      .   S
    C372   H163      1.09071      .   S
    C373   H164      1.09071      .   S
    H47    C234      1.09916      .   S
    H46    C233      1.09046      .   S
    C235   C233      1.41064      .   S
    C235   C237      1.41243      .   S
    C236   C234      1.41065      .   S
    C236   C238      1.41244      .   S
    H1     C168      1.09022      .   S
    H0     C167      1.09014      .   S
    C233   C231      1.38650      .   S
    C168   C170      1.34960      .   S
    C167   C169      1.34960      .   S
    C234   C232      1.38804      .   S
    H48    C237      1.09199      .   S
    H49    C238      1.09202      .   S
    C237   C239      1.38584      .   S
    C238   C240      1.38554      .   S
    H2     C169      1.09421      .   S
    H3     C170      1.09422      .   S
    C169   C171      1.45722      .   S
    C170   C172      1.45727      .   S
    C231   H44       1.09206      .   S
    C231   C229      1.41395      .   S
    C232   H45       1.09176      .   S
    C232   C230      1.41248      .   S
    H10    C181      1.08996      .   S
    H11    C182      1.07412      .   S
    C239   C229      1.40999      .   S
    C239   H50       1.08978      .   S
    C240   C230      1.41015      .   S
    C240   H51       1.08960      .   S
    C229   C227      1.45719      .   S
    C230   C228      1.45727      .   S
    C172   C182      1.40680      .   S
    C172   C174      1.41257      .   S
    C171   C181      1.41004      .   S
    C171   C173      1.41248      .   S
    C182   C180      1.40511      .   S
    C181   C179      1.38406      .   S
    H5     C174      1.09178      .   S
    H4     C173      1.09177      .   S
    C174   C176      1.38795      .   S
    C173   C175      1.38810      .   S
    C227   H42       1.09422      .   S
    C227   C225      1.34969      .   S
    C228   H43       1.09422      .   S
    C228   C226      1.34979      .   S
    C179   H8        1.09226      .   S
    C179   C177      1.41403      .   S
    C180   H9        1.09205      .   S
    C180   C178      1.41265      .   S
    C225   H40       1.09014      .   S
    C176   C178      1.41065      .   S
    C176   H7        1.09023      .   S
    C175   C177      1.41064      .   S
    C175   H6        1.08993      .   S
    C226   H41       1.09014      .   S
    C177   C185      1.45372      .   S
    C178   C186      1.45311      .   S
    H124   C327      1.09062  1_565   S
    H123   C326      1.09011  1_565   S
    H125   C328      1.09131      .   S
    H126   C329      1.09139      .   S
    C327   C328      1.36711      .   S
    C327   C313      1.43131      .   S
    C326   C329      1.36712  1_455   S
    C326   C312      1.43176      .   S
    C328   C318      1.43335      .   S
    C329   C319      1.43334      .   S
    H112   C310      1.09063  1_565   S
    H113   C311      1.09055  1_565   S
    H114   C320      1.09130      .   S
    H115   C321      1.09130      .   S
    C310   C312      1.41229      .   S
    C310   C308      1.38376      .   S
    C313   C311      1.41228      .   S
    C313   C315      1.42049      .   S
    C312   C314      1.42061      .   S
    C311   C309      1.38312      .   S
    C185   H14       1.09504      .   S
    C185   C183      1.35031      .   S
    C186   H15       1.09508      .   S
    C186   C184      1.35099      .   S
    C318   C320      1.41369      .   S
    C318   C317      1.41819      .   S
    C319   C321      1.41368      .   S
    C319   C316      1.41835  1_655   S
    C320   C322      1.38129      .   S
    C321   C323      1.38119      .   S
    H110   C308      1.08980      .   S
    C308   C306      1.40782      .   S
    C309   H111      1.08985      .   S
    C309   C307      1.40848      .   S
    C315   C317      1.44112      .   S
    C315   N385      1.35379      .   S
    C314   C316      1.44105      .   S
    C314   N384      1.35388      .   S
    C317   N387      1.36135      .   S
    C316   N386      1.36142      .   S
    C322   H116      1.08888      .   S
    C322   C324      1.40656      .   S
    C323   H117      1.08873      .   S
    C323   C325      1.40678      .   S
    C306   N384      1.33209      .   S
    C306   H108      1.09233      .   S
    C307   N385      1.33208      .   S
    C307   H109      1.09238      .   S
    N387   C324      1.33660      .   S
    N386   C325      1.33667  1_455   S
    C183   H12       1.08982      .   S
    C184   H13       1.08983      .   S
    C324   H118      1.08960      .   S
    C325   H119      1.08947      .   S
    H103   C299      1.09287      .   S
    H102   C298      1.09294      .   S
    H104   C302      1.09046      .   S
    H105   C303      1.09072      .   S
    C299   C297      1.35007      .   S
    C299   C301      1.45579      .   S
    C298   C296      1.35054      .   S
    C298   C300      1.45685      .   S
    C297   H101      1.09148      .   S
    C296   H100      1.09153      .   S
    C302   C301      1.41363      .   S
    C302   C199      1.38563  1_565   S
    C303   C300      1.41398  1_655   S
    C303   C200      1.38608  1_565   S
    H23    C200      1.09075      .   S
    H22    C199      1.09051      .   S
    C301   C305      1.40915      .   S
    C300   C304      1.40941      .   S
    C200   C196      1.40947      .   S
    C199   C91       1.40923      .   S
    C305   H107      1.09054      .   S
    C305   C198      1.38563  1_565   S
    C304   H106      1.09059      .   S
    C304   C197      1.38612  1_565   S
    H17    C88       1.09156      .   S
    H16    C187      1.09146      .   S
    C196   C197      1.41398  1_655   S
    C196   C90       1.45682      .   S
    C91    C198      1.41360      .   S
    C91    C89       1.45577      .   S
    C197   H20       1.09066      .   S
    C198   H21       1.09011      .   S
    C88    C90       1.35054      .   S
    C187   C89       1.35004      .   S
    C90    H19       1.09294      .   S
    C89    H18       1.09278      .   S
    H34    C219      1.08954      .   S
    H35    C220      1.08963      .   S
    H24    C201      1.09240      .   S
    H25    C202      1.09190      .   S
    H96    C292      1.08981      .   S
    H97    C293      1.08981      .   S
    C219   N379      1.33668  1_455   S
    C219   C217      1.40676      .   S
    C220   N378      1.33659      .   S
    C220   C218      1.40662      .   S
    C292   C294      1.35018      .   S
    C293   C295      1.35031      .   S
    N379   C212      1.36139      .   S
    N378   C211      1.36100      .   S
    N376   C201      1.33209      .   S
    N376   C209      1.35376      .   S
    N377   C202      1.33210      .   S
    N377   C210      1.35388      .   S
    C201   C203      1.40794      .   S
    C202   C204      1.40826      .   S
    H32    C217      1.08873      .   S
    H33    C218      1.08888      .   S
    C217   C215      1.38115      .   S
    C218   C216      1.38122      .   S
    C212   C210      1.44105      .   S
    C212   C213      1.41833  1_655   S
    C211   C209      1.44116      .   S
    C211   C214      1.41848      .   S
    C210   C208      1.42060      .   S
    C209   C207      1.42054      .   S
    H26    C203      1.08984      .   S
    C203   C205      1.38371      .   S
    C204   H27       1.08981      .   S
    C204   C206      1.38374      .   S
    C215   C213      1.41368      .   S
    C215   H30       1.09137      .   S
    C216   C214      1.41368      .   S
    C216   H31       1.09134      .   S
    C213   C223      1.43332      .   S
    H98    C294      1.09505      .   S
    C214   C224      1.43337      .   S
    H99    C295      1.09503      .   S
    C294   C286      1.45391      .   S
    C295   C287      1.45370      .   S
    C205   C207      1.41228      .   S
    C205   H28       1.09057  1_565   S
    C207   C221      1.43133      .   S
    C208   C206      1.41229      .   S
    C208   C222      1.43131      .   S
    C206   H29       1.09060  1_565   S
    C223   C222      1.36710  1_455   S
    C223   H38       1.09130      .   S
    C224   C221      1.36707      .   S
    C224   H39       1.09128      .   S
    C222   H37       1.09059  1_565   S
    C221   H36       1.09064  1_565   S
    H87    C285      1.09047      .   S
    H86    C284      1.09041      .   S
    C286   C284      1.41062      .   S
    C286   C288      1.41246      .   S
    C287   C285      1.41064      .   S
    C287   C289      1.41239      .   S
    H127   C330      1.09020      .   S
    H128   C331      1.09020      .   S
    C284   C282      1.38816      .   S
    C330   C332      1.34847      .   S
    C285   C283      1.38809      .   S
    C331   C333      1.34970      .   S
    H92    C288      1.09200      .   S
    H93    C289      1.09200      .   S
    C288   C290      1.38604      .   S
    C289   C291      1.38596      .   S
    H130   C333      1.09422      .   S
    H129   C332      1.09420      .   S
    C332   C334      1.45852      .   S
    C333   C335      1.45717      .   S
    C283   H85       1.09177      .   S
    C283   C281      1.41248      .   S
    C282   H84       1.09178      .   S
    C282   C280      1.41256      .   S
    H137   C344      1.08995      .   S
    H138   C345      1.08995      .   S
    C290   C280      1.41011      .   S
    C290   H94       1.08997      .   S
    C291   C281      1.41006      .   S
    C291   H95       1.08995      .   S
    C281   C279      1.45724      .   S
    C280   C278      1.45729      .   S
    C334   C344      1.41004      .   S
    C334   C336      1.41249      .   S
    C335   C345      1.40999      .   S
    C335   C337      1.41248      .   S
    C344   C342      1.38619      .   S
    C345   C343      1.38585      .   S
    H131   C336      1.09177      .   S
    H132   C337      1.09178      .   S
    C336   C338      1.38805      .   S
    C337   C339      1.38820      .   S
    C278   H82       1.09422      .   S
    C278   C276      1.34963      .   S
    C279   H83       1.09418      .   S
    C279   C277      1.34961      .   S
    C342   H135      1.09200      .   S
    C342   C340      1.41244      .   S
    C343   H136      1.09197      .   S
    C343   C341      1.41243      .   S
    C338   C340      1.41063      .   S
    C338   H133      1.09035      .   S
    C276   H80       1.08999      .   S
    C277   H81       1.09014      .   S
    C339   C341      1.41066      .   S
    C339   H134      1.09045      .   S
    C340   C348      1.45393      .   S
    C341   C349      1.45379      .   S
    H76    C272      1.09072      .   S
    H77    C273      1.09072      .   S
    H79    C275      1.09081      .   S
    H78    C274      1.09128      .   S
    C272   C275      1.36706      .   S
    C272   C258      1.43132      .   S
    C273   C274      1.36708  1_655   S
    C273   C259      1.43134      .   S
    C275   C265      1.43327      .   S
    C274   C264      1.43334      .   S
    H69    C257      1.09060      .   S
    H68    C256      1.09073      .   S
    H71    C267      1.09132      .   S
    H70    C266      1.09133      .   S
    C257   C259      1.41226      .   S
    C257   C255      1.38387      .   S
    C258   C256      1.41226      .   S
    C258   C260      1.42060      .   S
    C256   C254      1.38372      .   S
    C259   C261      1.42055      .   S
    C348   H141      1.09503      .   S
    C348   C346      1.35022      .   S
    C349   H142      1.09503      .   S
    C349   C347      1.35025      .   S
    C265   C267      1.41384      .   S
    C265   C262      1.41884      .   S
    C264   C266      1.41363      .   S
    C264   C263      1.41840  1_455   S
    C267   C269      1.38113      .   S
    C266   C268      1.38115      .   S
    H67    C255      1.08977      .   S
    C255   C253      1.40784      .   S
    C254   H66       1.08982      .   S
    C254   C252      1.40790      .   S
    C260   C262      1.44097      .   S
    C260   N380      1.35372      .   S
    C261   C263      1.44098      .   S
    C261   N381      1.35386      .   S
    C262   N382      1.36151      .   S
    C263   N383      1.36130      .   S
    C269   H73       1.08670      .   S
    C269   C271      1.40609      .   S
    C268   H72       1.08874      .   S
    C268   C270      1.40682      .   S
    C253   N381      1.33205      .   S
    C253   H65       1.09228      .   S
    C252   N380      1.33205      .   S
    C252   H64       1.09236      .   S
    N382   C271      1.33636      .   S
    N383   C270      1.33664  1_655   S
    C346   H139      1.08981      .   S
    C347   H140      1.08982      .   S
    C271   H75       1.09016  1_565   S
    C270   H74       1.08946  1_565   S
    H59    C245      1.09292      .   S
    H58    C122      1.09279      .   S
    H60    C248      1.09044      .   S
    H61    C249      1.08992      .   S
    C245   C121      1.35057      .   S
    C245   C247      1.45690      .   S
    C122   C120      1.35018      .   S
    C122   C246      1.45603      .   S
    C121   H57       1.09154      .   S
    C120   H56       1.09146      .   S
    C249   C246      1.41390      .   S
    C249   C359      1.38619      .   S
    C248   C247      1.41408  1_455   S
    C248   C358      1.38633      .   S
    H150   C359      1.09052      .   S
    H149   C358      1.09058      .   S
