# CIF file generated by openbabel 2.4.90, see http://openbabel.sf.net
data_I
_chemical_name_common ''
_cell_length_a 21.511
_cell_length_b 12.442
_cell_length_c 26.091
_cell_angle_alpha 91.126
_cell_angle_beta 89.998
_cell_angle_gamma 89.989
_space_group_name_H-M_alt 'P 1'
_space_group_name_Hall 'P 1'
loop_
    _symmetry_equiv_pos_as_xyz
    x,y,z
loop_
    _atom_site_label
    _atom_site_type_symbol
    _atom_site_fract_x
    _atom_site_fract_y
    _atom_site_fract_z
    _atom_site_occupancy
    Lv0     Lv   0.46774   0.78717   0.60442   1.000
    Lv1     Lv   0.28950   0.85901   0.29681   1.000
    Lv2     Lv   0.28919   0.64087   0.20308   1.000
    Lv3     Lv   0.00001   0.50002   0.99998   1.000
    Lv4     Lv   0.21151   0.35911   0.79682   1.000
    Lv5     Lv   0.21161   0.14095   0.70312   1.000
    Lv6     Lv   0.78850   0.64094   0.20311   1.000
    Lv7     Lv   0.50001   0.00002   0.49998   1.000
    Lv8     Lv   0.71083   0.35918   0.79689   1.000
    Lv9     Lv   0.96768   0.71382   0.89560   1.000
    Lv10    Lv   0.96767   0.78626   0.60431   1.000
    Lv11    Lv   0.50001   0.50002   0.99993   1.000
    Lv12    Lv   0.00001   0.00002   0.49998   1.000
    Lv13    Lv   0.03234   0.28622   0.10436   1.000
    Lv14    Lv   0.53208   0.28678   0.10463   1.000
    Lv15    Lv   0.03235   0.21378   0.39565   1.000
    Lv16    Lv   0.53227   0.21287   0.39554   1.000
    Lv17    Lv   0.71052   0.14104   0.70315   1.000
    Lv18    Lv   0.46794   0.71326   0.89529   1.000
    Lv19    Lv   0.78841   0.85910   0.29679   1.000
