# CIF file generated by openbabel 2.4.90, see http://openbabel.sf.net
data_I
_chemical_name_common ''
_cell_length_a 21.511
_cell_length_b 12.442
_cell_length_c 26.091
_cell_angle_alpha 91.126
_cell_angle_beta 89.998
_cell_angle_gamma 89.989
_space_group_name_H-M_alt 'P 1'
_space_group_name_Hall 'P 1'
loop_
    _symmetry_equiv_pos_as_xyz
    x,y,z
loop_
    _atom_site_label
    _atom_site_type_symbol
    _atom_site_fract_x
    _atom_site_fract_y
    _atom_site_fract_z
    _atom_site_occupancy
    C0      C    0.36640   0.14786   0.97531   1.000
    C1      C    0.86559   0.14846   0.97473   1.000
    C2      C    0.22972   0.02086   0.11831   1.000
    C3      C    0.72852   0.02091   0.11830   1.000
    C4      C    0.35790   0.65895   0.46287   1.000
    C5      C    0.85681   0.65909   0.46294   1.000
    C6      C    0.36644   0.35199   0.52529   1.000
    C7      C    0.86555   0.35159   0.52524   1.000
    C8      C    0.22967   0.47912   0.38165   1.000
    C9      C    0.72863   0.47899   0.38166   1.000
    C10     C    0.35766   0.84093   0.03705   1.000
    C11     C    0.85684   0.84096   0.03700   1.000
    C12     C    0.27150   0.97912   0.88167   1.000
    C13     C    0.77030   0.97918   0.88166   1.000
    C14     C    0.14321   0.34095   0.53703   1.000
    C15     C    0.64212   0.34109   0.53710   1.000
    C16     C    0.13447   0.64845   0.47473   1.000
    C17     C    0.63358   0.64805   0.47467   1.000
    C18     C    0.27139   0.52104   0.61830   1.000
    C19     C    0.77035   0.52092   0.61832   1.000
    C20     C    0.14317   0.15908   0.96292   1.000
    C21     C    0.64236   0.15911   0.96292   1.000
    C22     C    0.13443   0.85158   0.02524   1.000
    C23     C    0.63362   0.85218   0.02465   1.000
