# CIF file generated by openbabel 2.4.90, see http://openbabel.sf.net
data_I
_chemical_name_common ''
_cell_length_a 21.511
_cell_length_b 12.442
_cell_length_c 26.091
_cell_angle_alpha 91.126
_cell_angle_beta 89.998
_cell_angle_gamma 89.989
_space_group_name_H-M_alt 'P 1'
_space_group_name_Hall 'P 1'
loop_
    _symmetry_equiv_pos_as_xyz
    x,y,z
loop_
    _atom_site_label
    _atom_site_type_symbol
    _atom_site_fract_x
    _atom_site_fract_y
    _atom_site_fract_z
    _atom_site_occupancy
    N0      N    0.46774   0.78717   0.60442   1.000
    N1      N    0.28950   0.85901   0.29681   1.000
    N2      N    0.28919   0.64087   0.20308   1.000
    N3      N    0.00001   0.50002   0.99998   1.000
    N4      N    0.21151   0.35911   0.79682   1.000
    N5      N    0.21161   0.14095   0.70312   1.000
    N6      N    0.78850   0.64094   0.20311   1.000
    N7      N    0.50001   0.00002   0.49998   1.000
    N8      N    0.71083   0.35918   0.79689   1.000
    N9      N    0.96768   0.71382   0.89560   1.000
    N10     N    0.96767   0.78626   0.60431   1.000
    N11     N    0.50001   0.50002   0.99993   1.000
    N12     N    0.00001   0.00002   0.49998   1.000
    N13     N    0.03234   0.28622   0.10436   1.000
    N14     N    0.53208   0.28678   0.10463   1.000
    N15     N    0.03235   0.21378   0.39565   1.000
    N16     N    0.53227   0.21287   0.39554   1.000
    N17     N    0.71052   0.14104   0.70315   1.000
    N18     N    0.46794   0.71326   0.89529   1.000
    N19     N    0.78841   0.85910   0.29679   1.000
    Zr20    Zr   0.74952   0.00013   0.99988   1.000
    O21     O    0.65049   0.09582   0.04368   1.000
    O22     O    0.66320   0.11177   0.04405   1.000
    O23     O    0.74083   0.03444   0.89028   1.000
    O24     O    0.75813   0.96576   0.10958   1.000
    O25     O    0.84877   0.90455   0.95629   1.000
    O26     O    0.83607   0.88856   0.95587   1.000
    O27     O    0.71792   0.13558   0.93482   1.000
    O28     O    0.65564   0.82395   0.00517   1.000
    O29     O    0.78125   0.86459   0.06505   1.000
    O30     O    0.84371   0.17634   0.99456   1.000
    Zr31    Zr   0.25050   0.99990   0.00008   1.000
    O32     O    0.15125   0.09549   0.04365   1.000
    O33     O    0.16395   0.11147   0.04408   1.000
    O34     O    0.21877   0.13545   0.93489   1.000
    O35     O    0.28210   0.86446   0.06514   1.000
    O36     O    0.34953   0.90422   0.95628   1.000
    O37     O    0.33681   0.88827   0.95590   1.000
    O38     O    0.25919   0.96560   0.10968   1.000
    O39     O    0.15631   0.82370   0.00540   1.000
    O40     O    0.34438   0.17608   0.99476   1.000
    O41     O    0.24189   0.03428   0.89037   1.000
    Zr42    Zr   0.74949   0.49995   0.49999   1.000
    O43     O    0.65054   0.40409   0.45630   1.000
    O44     O    0.66327   0.38817   0.45592   1.000
    O45     O    0.84369   0.32372   0.50536   1.000
    O46     O    0.71776   0.36456   0.56513   1.000
    O47     O    0.78120   0.63547   0.43485   1.000
    O48     O    0.65562   0.67615   0.49459   1.000
    O49     O    0.74091   0.46568   0.60966   1.000
    O50     O    0.83605   0.61152   0.54403   1.000
    O51     O    0.84875   0.59552   0.54361   1.000
    O52     O    0.75817   0.53428   0.39033   1.000
    Zr53    Zr   0.25053   0.50008   0.49998   1.000
    O54     O    0.21882   0.36457   0.56510   1.000
    O55     O    0.16396   0.38851   0.45594   1.000
    O56     O    0.15127   0.40451   0.45636   1.000
    O57     O    0.15633   0.67632   0.49461   1.000
    O58     O    0.34948   0.59595   0.54366   1.000
    O59     O    0.33675   0.61187   0.54405   1.000
    O60     O    0.34440   0.32388   0.50538   1.000
    O61     O    0.28226   0.63548   0.43483   1.000
    O62     O    0.24184   0.46576   0.60963   1.000
    O63     O    0.25910   0.53436   0.39030   1.000
loop_
    _geom_bond_atom_site_label_1
    _geom_bond_atom_site_label_2
    _geom_bond_distance
    _geom_bond_site_symmetry_2
    _ccdc_geom_bond_type
    Zr20   O21       2.68440  1_556   S
    N14    O21       3.80936      .   S
    Zr20   O22       2.57696  1_556   S
    N14    O22       3.88039      .   S
    Zr20   O23       2.90564      .   S
    N17    O23       5.12609      .   S
    Zr20   O24       2.90808  1_546   S
    N19    O24       5.12822      .   S
    Zr20   O25       2.68540  1_545   S
    N9     O25       3.81198      .   S
    Zr20   O26       2.57846  1_545   S
    N9     O26       3.88286      .   S
    Zr20   O27       2.50917      .   S
    N8     O27       4.59429      .   S
    Zr20   O28       2.98586  1_546   S
    N11    O28       5.23962  1_556   S
    Zr20   O29       2.51260  1_546   S
    N6     O29       4.59746      .   S
    Zr20   O30       2.99085      .   S
    N3     O30       5.24648  1_455   S
    Zr31   O32       2.68521  1_565   S
    N13    O32       3.81215      .   S
    Zr31   O33       2.57828  1_565   S
    N13    O33       3.88300      .   S
    Zr31   O34       2.51284  1_564   S
    N4     O34       4.59786      .   S
    Zr31   O35       2.50922      .   S
    N2     O35       4.59425      .   S
    Zr31   O36       2.68448  1_554   S
    N18    O36       3.80966      .   S
    Zr31   O37       2.57704  1_554   S
    N18    O37       3.88070      .   S
    Zr31   O38       2.90571      .   S
    N1     O38       5.12598      .   S
    Zr31   O39       2.99079      .   S
    N3     O39       5.24637  1_556   S
    Zr31   O40       2.98596  1_564   S
    N11    O40       5.23969      .   S
    Zr31   O41       2.90831  1_564   S
    N5     O41       5.12921      .   S
    Zr42   O43       2.68326      .   S
    N16    O43       3.80790      .   S
    Zr42   O44       2.57573      .   S
    N16    O44       3.87900      .   S
    Zr42   O45       2.99058      .   S
    N12    O45       5.24601  1_455   S
    Zr42   O46       2.51102      .   S
    N17    O46       4.59554      .   S
    Zr42   O47       2.51194      .   S
    N19    O47       4.59725      .   S
    Zr42   O48       2.98556      .   S
    N7     O48       5.23779  1_545   S
    Zr42   O49       2.90728      .   S
    N8     O49       5.12743      .   S
    Zr42   O50       2.57944      .   S
    N10    O50       3.88385      .   S
    Zr42   O51       2.68635      .   S
    N10    O51       3.81299      .   S
    Zr42   O52       2.90717      .   S
    N6     O52       5.12848      .   S
    Zr53   O54       2.51164      .   S
    N5     O54       4.59626      .   S
    Zr53   O55       2.57941      .   S
    N15    O55       3.88379      .   S
    Zr53   O56       2.68632      .   S
    N15    O56       3.81294      .   S
    Zr53   O57       2.99058      .   S
    N12    O57       5.24601  1_545   S
    Zr53   O58       2.68327      .   S
    N0     O58       3.80791      .   S
    Zr53   O59       2.57573      .   S
    N0     O59       3.87902      .   S
    Zr53   O60       2.98556      .   S
    N7     O60       5.23778      .   S
    Zr53   O61       2.51111      .   S
    N1     O61       4.59579      .   S
    Zr53   O62       2.90691      .   S
    N4     O62       5.12776      .   S
    Zr53   O63       2.90730      .   S
    N2     O63       5.12757      .   S
