# CIF file generated by openbabel 2.4.90, see http://openbabel.sf.net
data_I
_chemical_name_common ''
_cell_length_a 13.07
_cell_length_b 15.248
_cell_length_c 19.142
_cell_angle_alpha 89.984
_cell_angle_beta 89.996
_cell_angle_gamma 89.964
_space_group_name_H-M_alt 'P 1'
_space_group_name_Hall 'P 1'
loop_
    _symmetry_equiv_pos_as_xyz
    x,y,z
loop_
    _atom_site_label
    _atom_site_type_symbol
    _atom_site_fract_x
    _atom_site_fract_y
    _atom_site_fract_z
    _atom_site_occupancy
    H0      H    0.50901   0.27805   0.73109   1.000
    H1      H    0.61610   0.40649   0.69206   1.000
    H2      H    0.41496   0.57488   0.81011   1.000
    H3      H    0.31378   0.44111   0.84268   1.000
    H4      H    0.46745   0.09092   0.91700   1.000
    H5      H    0.60218   0.08890   0.01201   1.000
    H6      H    0.51299   0.35227   0.06437   1.000
    H7      H    0.38454   0.34559   0.96573   1.000
    H8      H    0.00000   0.72189   0.23119   1.000
    H9      H    0.88280   0.59380   0.19234   1.000
    H10     H    0.08343   0.42472   0.31019   1.000
    H11     H    0.18525   0.55818   0.34266   1.000
    H12     H    0.03179   0.90874   0.41668   1.000
    H13     H    0.89802   0.91084   0.51233   1.000
    H14     H    0.00000   0.64779   0.56491   1.000
    H15     H    0.11586   0.65442   0.46571   1.000
    H16     H    0.49106   0.77800   0.76895   1.000
    H17     H    0.38399   0.90653   0.80801   1.000
    H18     H    0.58507   0.07480   0.68993   1.000
    H19     H    0.68619   0.94092   0.65729   1.000
    H20     H    0.53284   0.59080   0.58297   1.000
    H21     H    0.39812   0.58874   0.48795   1.000
    H22     H    0.48700   0.85206   0.43538   1.000
    H23     H    0.61544   0.84541   0.53404   1.000
    H24     H    0.00941   0.22193   0.26886   1.000
    H25     H    0.11713   0.09371   0.30774   1.000
    H26     H    0.91660   0.92491   0.18983   1.000
    H27     H    0.81482   0.05853   0.15730   1.000
    H28     H    0.96826   0.40899   0.08327   1.000
    H29     H    0.10197   0.41101   0.98760   1.000
    H30     H    0.01170   0.14807   0.93507   1.000
    H31     H    0.88418   0.15480   0.03428   1.000
    H32     H    0.49094   0.72198   0.26887   1.000
    H33     H    0.38386   0.59353   0.30790   1.000
    H34     H    0.58501   0.42514   0.18986   1.000
    H35     H    0.68619   0.55891   0.15729   1.000
    H36     H    0.53253   0.90911   0.08297   1.000
    H37     H    0.39780   0.91112   0.98795   1.000
    H38     H    0.48700   0.64776   0.93560   1.000
    H39     H    0.61545   0.65445   0.03424   1.000
    H40     H    0.00943   0.27814   0.76880   1.000
    H41     H    0.11717   0.40622   0.80763   1.000
    H42     H    0.91654   0.57530   0.68979   1.000
    H43     H    0.81472   0.44185   0.65732   1.000
    H44     H    0.96820   0.09129   0.58330   1.000
    H45     H    0.10197   0.08918   0.48766   1.000
    H46     H    0.01166   0.35223   0.43506   1.000
    H47     H    0.88412   0.34560   0.53427   1.000
    H48     H    0.50891   0.22201   0.23101   1.000
    H49     H    0.61598   0.09348   0.19195   1.000
    H50     H    0.41490   0.92523   0.31005   1.000
    H51     H    0.31378   0.05910   0.34268   1.000
    H52     H    0.46717   0.40922   0.41698   1.000
    H53     H    0.60190   0.41127   0.51199   1.000
    H54     H    0.51296   0.14798   0.56460   1.000
    H55     H    0.38451   0.15463   0.46594   1.000
    H56     H    0.00000   0.77810   0.73111   1.000
    H57     H    0.88285   0.90631   0.69223   1.000
    H58     H    0.08337   0.07511   0.81016   1.000
    H59     H    0.18516   0.94150   0.84267   1.000
    H60     H    0.03173   0.59103   0.91671   1.000
    H61     H    0.89801   0.58901   0.01237   1.000
    H62     H    0.00000   0.85196   0.06490   1.000
    H63     H    0.11578   0.84524   0.96570   1.000
    C64     C    0.49132   0.34481   0.74739   1.000
    C65     C    0.55049   0.41570   0.72634   1.000
    C66     C    0.52442   0.49999   0.74905   1.000
    C67     C    0.43838   0.51017   0.79186   1.000
    C68     C    0.38204   0.43613   0.81023   1.000
    C69     C    0.48118   0.14752   0.95047   1.000
    C70     C    0.55429   0.14630   0.00313   1.000
    C71     C    0.56829   0.22125   0.04414   1.000
    C72     C    0.50516   0.29379   0.03220   1.000
    C73     C    0.43448   0.29036   0.97789   1.000
    C74     C    0.00793   0.65506   0.24752   1.000
    C75     C    0.94841   0.58437   0.22658   1.000
    C76     C    0.97414   0.49998   0.24927   1.000
    C77     C    0.06023   0.48951   0.29197   1.000
    C78     C    0.11694   0.56337   0.31027   1.000
    C79     C    0.01849   0.85222   0.45035   1.000
    C80     C    0.94596   0.85349   0.50337   1.000
    C81     C    0.93256   0.77865   0.54463   1.000
    C82     C    0.00000   0.70619   0.53258   1.000
    C83     C    0.06583   0.70954   0.47794   1.000
    C84     C    0.50874   0.84476   0.75266   1.000
    C85     C    0.44956   0.91570   0.77370   1.000
    C86     C    0.47565   0.99997   0.75101   1.000
    C87     C    0.56164   0.01009   0.70815   1.000
    C88     C    0.61797   0.93600   0.68979   1.000
    C89     C    0.51903   0.64739   0.54945   1.000
    C90     C    0.44593   0.64614   0.49679   1.000
    C91     C    0.43182   0.72108   0.45573   1.000
    C92     C    0.49490   0.79360   0.46759   1.000
    C93     C    0.56556   0.79020   0.52192   1.000
    C94     C    0.99202   0.15513   0.25253   1.000
    C95     C    0.05156   0.08437   0.27347   1.000
    C96     C    0.02581   0.00003   0.25079   1.000
    C97     C    0.93979   0.00000   0.20803   1.000
    C98     C    0.88308   0.06360   0.18975   1.000
    C99     C    0.98154   0.35247   0.04960   1.000
    C100    C    0.05405   0.35372   0.00000   1.000
    C101    C    0.06744   0.27886   0.95533   1.000
    C102    C    0.00428   0.20646   0.96739   1.000
    C103    C    0.93420   0.20988   0.02204   1.000
    C104    C    0.50863   0.65522   0.25257   1.000
    C105    C    0.44947   0.58432   0.27362   1.000
    C106    C    0.47554   0.50003   0.25092   1.000
    C107    C    0.56159   0.48985   0.20811   1.000
    C108    C    0.61792   0.56389   0.18974   1.000
    C109    C    0.51880   0.85251   0.04949   1.000
    C110    C    0.44569   0.85373   0.00000   1.000
    C111    C    0.43169   0.77878   0.95582   1.000
    C112    C    0.49484   0.70624   0.96777   1.000
    C113    C    0.56550   0.70967   0.02208   1.000
    C114    C    0.99204   0.34496   0.75245   1.000
    C115    C    0.05155   0.41566   0.77341   1.000
    C116    C    0.02583   0.50004   0.75071   1.000
    C117    C    0.93973   0.51051   0.70801   1.000
    C118    C    0.88304   0.43666   0.68971   1.000
    C119    C    0.98150   0.14781   0.54964   1.000
    C120    C    0.05402   0.14653   0.49661   1.000
    C121    C    0.06743   0.22138   0.45535   1.000
    C122    C    0.00426   0.29383   0.46739   1.000
    C123    C    0.93415   0.29048   0.52204   1.000
    C124    C    0.49122   0.15526   0.24730   1.000
    C125    C    0.55041   0.08432   0.22627   1.000
    C126    C    0.52432   0.00005   0.24896   1.000
    C127    C    0.43834   0.00000   0.29183   1.000
    C128    C    0.38199   0.06402   0.31017   1.000
    C129    C    0.48099   0.35262   0.45049   1.000
    C130    C    0.55405   0.35389   0.50318   1.000
    C131    C    0.56817   0.27894   0.54422   1.000
    C132    C    0.50505   0.20644   0.53239   1.000
    C133    C    0.43444   0.20983   0.47804   1.000
    C134    C    0.00796   0.84489   0.74745   1.000
    C135    C    0.94842   0.91565   0.72650   1.000
    C136    C    0.97416   0.99999   0.74919   1.000
    C137    C    0.06019   0.01035   0.79194   1.000
    C138    C    0.11689   0.93642   0.81024   1.000
    C139    C    0.01843   0.64756   0.95037   1.000
    C140    C    0.94594   0.64631   0.00341   1.000
    C141    C    0.93253   0.72117   0.04464   1.000
    C142    C    0.00000   0.79357   0.03259   1.000
    C143    C    0.06575   0.79016   0.97793   1.000
    N144    N    0.40811   0.35459   0.78878   1.000
    N145    N    0.42366   0.21910   0.93669   1.000
    N146    N    0.09120   0.64499   0.28881   1.000
    N147    N    0.07605   0.78069   0.43651   1.000
    N148    N    0.59190   0.85447   0.71121   1.000
    N149    N    0.57647   0.71896   0.56319   1.000
    N150    N    0.90881   0.14520   0.21118   1.000
    N151    N    0.92398   0.28101   0.06347   1.000
    N152    N    0.59185   0.64543   0.21119   1.000
    N153    N    0.57633   0.78093   0.06328   1.000
    N154    N    0.90876   0.35503   0.71117   1.000
    N155    N    0.92393   0.21933   0.56348   1.000
    N156    N    0.40808   0.14556   0.28877   1.000
    N157    N    0.42349   0.28108   0.43679   1.000
    N158    N    0.09117   0.85483   0.78879   1.000
    N159    N    0.07601   0.71902   0.93652   1.000
loop_
    _geom_bond_atom_site_label_1
    _geom_bond_atom_site_label_2
    _geom_bond_distance
    _geom_bond_site_symmetry_2
    _ccdc_geom_bond_type
    C100   C99       1.34168  1_455   S
    C100   C101      1.43694  1_554   S
    C100   H29       1.10109  1_554   S
    C110   C109      1.34568      .   S
    C110   C111      1.43372  1_554   S
    C110   H37       1.10011  1_554   S
    C70    H5        1.08902      .   S
    C70    C71       1.39876      .   S
    C70    C69       1.38908  1_554   S
    C140   H61       1.08885      .   S
    C140   C141      1.39887      .   S
    C140   C139      1.38890  1_654   S
    C103   H31       1.09006      .   S
    C103   N151      1.35031      .   S
    C103   C102      1.39131  1_654   S
    C113   H39       1.09019      .   S
    C113   N153      1.35033      .   S
    C113   C112      1.39171  1_554   S
    C72    C71       1.39838      .   S
    C72    H6        1.08865      .   S
    C72    C73       1.39171  1_554   S
    C142   C141      1.43197  1_455   S
    C142   H62       1.08435      .   S
    C142   C143      1.35489  1_554   S
    C109   N153      1.35096      .   S
    C109   H36       1.09001      .   S
    C99    N151      1.35082      .   S
    C99    H28       1.09007      .   S
    H35    C108      1.08977      .   S
    H27    C98       1.08986      .   S
    C108   C107      1.39323      .   S
    C108   N152      1.35289      .   S
    C98    C97       1.26940      .   S
    C98    N150      1.35282      .   S
    H26    C97       1.23486  1_565   S
    H34    C107      1.09046      .   S
    H49    C125      1.08881      .   S
    H9     C75       1.08877      .   S
    C97    C96       1.39079  1_655   S
    C107   C106      1.40004      .   S
    N150   C94       1.35377      .   S
    N152   C104      1.35380      .   S
    C125   C124      1.38913      .   S
    C125   C126      1.39869      .   S
    C75    C74       1.38897  1_655   S
    C75    C76       1.39870      .   S
    H48    C124      1.08944      .   S
    H8     C74       1.07069      .   S
    C124   N156      1.35380      .   S
    C74    N146      1.35379      .   S
    C126   C127      1.39144      .   S
    C76    C77       1.39986  1_655   S
    C96    C95       1.39871      .   S
    C106   C105      1.39870      .   S
    C94    H24       1.08955  1_655   S
    C94    C95       1.38898  1_655   S
    C104   H32       1.08947      .   S
    C104   C105      1.38912      .   S
    C95    H25       1.08876      .   S
    C105   H33       1.08880      .   S
    N156   C128      1.35286      .   S
    N146   C78       1.35287      .   S
    C127   H50       1.23112  1_545   S
    C127   C128      1.27197      .   S
    C77    H10       1.09049      .   S
    C77    C78       1.39329      .   S
    C128   H51       1.08976      .   S
    C78    H11       1.08990      .   S
    H12    C79       1.09006      .   S
    H52    C129      1.09002      .   S
    H46    C122      1.08862      .   S
    H22    C92       1.08867      .   S
    N147   C79       1.35083      .   S
    N147   C83       1.35032      .   S
    N157   C129      1.35095      .   S
    N157   C133      1.35034      .   S
    C79    C80       1.38883  1_455   S
    C129   C130      1.38908      .   S
    C121   C122      1.39801      .   S
    C121   C120      1.39885      .   S
    C91    C92       1.39834      .   S
    C91    C90       1.39879      .   S
    H15    C83       1.09009      .   S
    H55    C133      1.09018      .   S
    C122   C123      1.39158  1_455   S
    C92    C93       1.39177      .   S
    C83    C82       1.35540      .   S
    C133   C132      1.39176      .   S
    H45    C120      1.08907      .   S
    H21    C90       1.08904      .   S
    C120   C119      1.38883  1_455   S
    C90    C89       1.38910      .   S
    C130   H53       1.08905      .   S
    C130   C131      1.39878      .   S
    C80    H13       1.08906      .   S
    C80    C81       1.39885      .   S
    C93    H23       1.09015      .   S
    C93    N149      1.35035      .   S
    C123   H47       1.09009      .   S
    C123   N155      1.35032      .   S
    C132   C131      1.39834      .   S
    C132   H54       1.08867      .   S
    C82    C81       1.43172  1_455   S
    C82    H14       1.08427      .   S
    C89    N149      1.35094      .   S
    C89    H20       1.09003      .   S
    C119   N155      1.35081      .   S
    C119   H44       1.09004      .   S
    H19    C88       1.08975      .   S
    H43    C118      1.08989      .   S
    C118   C117      1.39330      .   S
    C118   N154      1.35287      .   S
    C88    C87       1.39324  1_565   S
    C88    N148      1.35286      .   S
    H42    C117      1.09049      .   S
    H18    C87       1.09046      .   S
    H1     C65       1.08881      .   S
    H57    C135      1.08877      .   S
    C117   C116      1.39986  1_655   S
    C87    C86       1.40001  1_545   S
    N154   C114      1.35379      .   S
    N148   C84       1.35380      .   S
    C65    C64       1.38913      .   S
    C65    C66       1.39870      .   S
    C135   C134      1.38898  1_655   S
    C135   C136      1.39868      .   S
    H0     C64       1.08946      .   S
    H56    C134      1.07059      .   S
    C64    N144      1.35379      .   S
    C134   N158      1.35377      .   S
    C66    C67       1.40004      .   S
    C136   C137      1.39982  1_665   S
    C116   C115      1.39870      .   S
    C86    C85       1.39869      .   S
    C114   H40       1.08959  1_655   S
    C114   C115      1.38895  1_655   S
    C84    H16       1.08944      .   S
    C84    C85       1.38912      .   S
    C115   H41       1.08877      .   S
    C85    H17       1.08882      .   S
    N144   C68       1.35289      .   S
    N158   C138      1.35282      .   S
    C67    H2        1.09045      .   S
    C67    C68       1.39323      .   S
    C137   H58       1.09047      .   S
    C137   C138      1.39330  1_545   S
    C68    H3        1.08976      .   S
    C138   H59       1.08987      .   S
    H60    C139      1.09008      .   S
    H4     C69       1.09001      .   S
    H30    C102      1.08863      .   S
    H38    C112      1.08865      .   S
    N159   C139      1.35080      .   S
    N159   C143      1.35032      .   S
    N145   C69       1.35095      .   S
    N145   C73       1.35033      .   S
    C101   C102      1.39794      .   S
    C111   C112      1.39837      .   S
    H63    C143      1.09006      .   S
    H7     C73       1.09020      .   S
