# CIF file generated by openbabel 2.4.90, see http://openbabel.sf.net
data_I
_chemical_name_common ''
_cell_length_a 13.07
_cell_length_b 15.248
_cell_length_c 19.142
_cell_angle_alpha 89.984
_cell_angle_beta 89.996
_cell_angle_gamma 89.964
_space_group_name_H-M_alt 'P 1'
_space_group_name_Hall 'P 1'
loop_
    _symmetry_equiv_pos_as_xyz
    x,y,z
loop_
    _atom_site_label
    _atom_site_type_symbol
    _atom_site_fract_x
    _atom_site_fract_y
    _atom_site_fract_z
    _atom_site_occupancy
    Cd0     Cd   0.17105   0.77199   0.33125   1.000
    Cd1     Cd   0.67147   0.72728   0.66857   1.000
    Cd2     Cd   0.82893   0.27224   0.16871   1.000
    Cd3     Cd   0.67146   0.77262   0.16861   1.000
    Cd4     Cd   0.82892   0.22803   0.66873   1.000
    Cd5     Cd   0.32850   0.27274   0.33140   1.000
    Cd6     Cd   0.17105   0.72778   0.83127   1.000
    Cd7     Cd   0.32851   0.22740   0.83137   1.000
    C8      C    0.58588   0.57773   0.72456   1.000
    C9      C    0.65535   0.22475   0.09567   1.000
    C10     C    0.91241   0.42244   0.22468   1.000
    C11     C    0.84593   0.77499   0.59648   1.000
    O12     O    0.21847   0.33682   0.90364   1.000
    O13     O    0.43099   0.34801   0.24697   1.000
    O14     O    0.35090   0.43348   0.32502   1.000
    O15     O    0.33821   0.70776   0.86454   1.000
    C16     C    0.41411   0.07774   0.77546   1.000
    C17     C    0.34475   0.72462   0.40422   1.000
    C18     C    0.08761   0.92242   0.27536   1.000
    C19     C    0.15402   0.27510   0.90345   1.000
    C20     C    0.41409   0.42229   0.27541   1.000
    C21     C    0.34464   0.77527   0.90430   1.000
    C22     C    0.08755   0.57758   0.77530   1.000
    C23     C    0.15405   0.22503   0.40350   1.000
    C24     C    0.58587   0.92228   0.22452   1.000
    C25     C    0.65521   0.27541   0.59576   1.000
    C26     C    0.91237   0.07760   0.72462   1.000
    C27     C    0.84596   0.72492   0.09654   1.000
    O28     O    0.56899   0.65201   0.75301   1.000
    O29     O    0.64907   0.56653   0.67495   1.000
    O30     O    0.66177   0.29225   0.13543   1.000
    O31     O    0.71988   0.16305   0.09498   1.000
    O32     O    0.92914   0.34804   0.25315   1.000
    O33     O    0.84942   0.43374   0.17503   1.000
    O34     O    0.83962   0.70728   0.63603   1.000
    O35     O    0.78144   0.83674   0.59618   1.000
    O36     O    0.43099   0.15203   0.74701   1.000
    O37     O    0.35093   0.06657   0.82507   1.000
    O38     O    0.33823   0.79215   0.36444   1.000
    O39     O    0.28023   0.66297   0.40494   1.000
    O40     O    0.07085   0.84803   0.24693   1.000
    O41     O    0.15060   0.93366   0.32500   1.000
    O42     O    0.16035   0.20734   0.86397   1.000
    O43     O    0.28010   0.83697   0.90498   1.000
    O44     O    0.07083   0.65198   0.74684   1.000
    O45     O    0.15055   0.56627   0.82495   1.000
    O46     O    0.16035   0.29274   0.36395   1.000
    O47     O    0.21854   0.16327   0.40380   1.000
    O48     O    0.56898   0.84799   0.25297   1.000
    O49     O    0.64904   0.93344   0.17491   1.000
    O50     O    0.66175   0.20788   0.63552   1.000
    O51     O    0.71976   0.33704   0.59501   1.000
    O52     O    0.92912   0.15199   0.75305   1.000
    O53     O    0.84937   0.06636   0.67498   1.000
    O54     O    0.83962   0.79268   0.13601   1.000
    O55     O    0.78150   0.66321   0.09633   1.000
loop_
    _geom_bond_atom_site_label_1
    _geom_bond_atom_site_label_2
    _geom_bond_distance
    _geom_bond_site_symmetry_2
    _ccdc_geom_bond_type
    O31    C9        1.26323      .   S
    C9     O30       1.28318      .   S
    O55    C27       1.26344      .   S
    C27    O54       1.28279      .   S
    O30    Cd2       2.29595      .   S
    O54    Cd3       2.30516      .   S
    Cd3    O49       2.47241      .   S
    Cd3    O48       2.39188      .   S
    Cd2    O33       2.48024      .   S
    Cd2    O32       2.38060      .   S
    O49    C24       1.26986      .   S
    O33    C10       1.26918      .   S
    C24    O48       1.27608      .   S
    C10    O32       1.27705      .   S
    O40    C18       1.27719      .   S
    O40    Cd0       2.37949      .   S
    O13    C20       1.27599      .   S
    O13    Cd5       2.39254      .   S
    C18    O41       1.26903      .   S
    C20    O14       1.26995      .   S
    O41    Cd0       2.48215      .   S
    O14    Cd5       2.47164      .   S
    Cd0    O38       2.29648      .   S
    Cd5    O46       2.30438      .   S
    O46    C23       1.28284      .   S
    O38    C17       1.28313      .   S
    C23    O47       1.26339      .   S
    C17    O39       1.26332      .   S
    O51    C25       1.26331      .   S
    C25    O50       1.28313      .   S
    O35    C11       1.26340      .   S
    C11    O34       1.28285      .   S
    O50    Cd4       2.29646      .   S
    O34    Cd1       2.30440      .   S
    Cd1    O29       2.47167      .   S
    Cd1    O28       2.39260      .   S
    Cd4    O53       2.48217      .   S
    Cd4    O52       2.37952      .   S
    O29    C8        1.26996      .   S
    O53    C26       1.26903      .   S
    C8     O28       1.27599      .   S
    C26    O52       1.27719      .   S
    O44    C22       1.27707      .   S
    O44    Cd6       2.38056      .   S
    O36    C16       1.27608      .   S
    O36    Cd7       2.39182      .   S
    C22    O45       1.26919      .   S
    C16    O37       1.26986      .   S
    O45    Cd6       2.48036      .   S
    O37    Cd7       2.47257      .   S
    Cd6    O15       2.29596      .   S
    Cd7    O42       2.30521      .   S
    O42    C19       1.28279      .   S
    O15    C21       1.28317      .   S
    C19    O12       1.26343      .   S
    C21    O43       1.26323      .   S
