# CIF file generated by openbabel 2.4.90, see http://openbabel.sf.net
data_I
_chemical_name_common ''
_cell_length_a 13.07
_cell_length_b 15.248
_cell_length_c 19.142
_cell_angle_alpha 89.984
_cell_angle_beta 89.996
_cell_angle_gamma 89.964
_space_group_name_H-M_alt 'P 1'
_space_group_name_Hall 'P 1'
loop_
    _symmetry_equiv_pos_as_xyz
    x,y,z
loop_
    _atom_site_label
    _atom_site_type_symbol
    _atom_site_fract_x
    _atom_site_fract_y
    _atom_site_fract_z
    _atom_site_occupancy
    Cd0     Cd   0.17105   0.77199   0.33125   1.000
    Cd1     Cd   0.67147   0.72728   0.66857   1.000
    Cd2     Cd   0.82893   0.27224   0.16871   1.000
    Cd3     Cd   0.67146   0.77262   0.16861   1.000
    Cd4     Cd   0.82892   0.22803   0.66873   1.000
    Cd5     Cd   0.32850   0.27274   0.33140   1.000
    Cd6     Cd   0.17105   0.72778   0.83127   1.000
    Cd7     Cd   0.32851   0.22740   0.83137   1.000
    C8      C    0.58588   0.57773   0.72456   1.000
    C9      C    0.65535   0.22475   0.09567   1.000
    C10     C    0.91241   0.42244   0.22468   1.000
    C11     C    0.84593   0.77499   0.59648   1.000
    O12     O    0.21847   0.33682   0.90364   1.000
    O13     O    0.43099   0.34801   0.24697   1.000
    O14     O    0.35090   0.43348   0.32502   1.000
    O15     O    0.33821   0.70776   0.86454   1.000
    C16     C    0.41411   0.07774   0.77546   1.000
    C17     C    0.34475   0.72462   0.40422   1.000
    C18     C    0.08761   0.92242   0.27536   1.000
    C19     C    0.15402   0.27510   0.90345   1.000
    C20     C    0.41409   0.42229   0.27541   1.000
    C21     C    0.34464   0.77527   0.90430   1.000
    C22     C    0.08755   0.57758   0.77530   1.000
    C23     C    0.15405   0.22503   0.40350   1.000
    C24     C    0.58587   0.92228   0.22452   1.000
    C25     C    0.65521   0.27541   0.59576   1.000
    C26     C    0.91237   0.07760   0.72462   1.000
    C27     C    0.84596   0.72492   0.09654   1.000
    O28     O    0.56899   0.65201   0.75301   1.000
    O29     O    0.64907   0.56653   0.67495   1.000
    O30     O    0.66177   0.29225   0.13543   1.000
    O31     O    0.71988   0.16305   0.09498   1.000
    O32     O    0.92914   0.34804   0.25315   1.000
    O33     O    0.84942   0.43374   0.17503   1.000
    O34     O    0.83962   0.70728   0.63603   1.000
    O35     O    0.78144   0.83674   0.59618   1.000
    O36     O    0.43099   0.15203   0.74701   1.000
    O37     O    0.35093   0.06657   0.82507   1.000
    O38     O    0.33823   0.79215   0.36444   1.000
    O39     O    0.28023   0.66297   0.40494   1.000
    O40     O    0.07085   0.84803   0.24693   1.000
    O41     O    0.15060   0.93366   0.32500   1.000
    O42     O    0.16035   0.20734   0.86397   1.000
    O43     O    0.28010   0.83697   0.90498   1.000
    O44     O    0.07083   0.65198   0.74684   1.000
    O45     O    0.15055   0.56627   0.82495   1.000
    O46     O    0.16035   0.29274   0.36395   1.000
    O47     O    0.21854   0.16327   0.40380   1.000
    O48     O    0.56898   0.84799   0.25297   1.000
    O49     O    0.64904   0.93344   0.17491   1.000
    O50     O    0.66175   0.20788   0.63552   1.000
    O51     O    0.71976   0.33704   0.59501   1.000
    O52     O    0.92912   0.15199   0.75305   1.000
    O53     O    0.84937   0.06636   0.67498   1.000
    O54     O    0.83962   0.79268   0.13601   1.000
    O55     O    0.78150   0.66321   0.09633   1.000
    Ts56    Ts   0.14444   0.72966   0.31710   1.000
    Ts57    Ts   0.13939   0.77489   0.36634   1.000
    Ts58    Ts   0.64495   0.76968   0.68278   1.000
    Ts59    Ts   0.63980   0.72451   0.63344   1.000
    Ts60    Ts   0.85556   0.22989   0.18286   1.000
    Ts61    Ts   0.86061   0.27516   0.13363   1.000
    Ts62    Ts   0.64493   0.73023   0.18280   1.000
    Ts63    Ts   0.63975   0.77539   0.13350   1.000
    Ts64    Ts   0.85553   0.27036   0.68288   1.000
    Ts65    Ts   0.86059   0.22513   0.63365   1.000
    Ts66    Ts   0.35503   0.23034   0.31719   1.000
    Ts67    Ts   0.36016   0.27552   0.36653   1.000
    Ts68    Ts   0.14442   0.77013   0.81711   1.000
    Ts69    Ts   0.13937   0.72486   0.86635   1.000
    Ts70    Ts   0.35504   0.26980   0.81717   1.000
    Ts71    Ts   0.36022   0.22463   0.86647   1.000
    Og72    Og   0.56540   0.55181   0.73272   1.000
    Og73    Og   0.62633   0.22358   0.07849   1.000
    Og74    Og   0.93299   0.44829   0.23288   1.000
    Og75    Og   0.87480   0.77621   0.57920   1.000
    Og76    Og   0.43462   0.05182   0.76731   1.000
    Og77    Og   0.37377   0.72344   0.42139   1.000
    Og78    Og   0.06701   0.94829   0.26717   1.000
    Og79    Og   0.12516   0.27635   0.92074   1.000
    Og80    Og   0.43457   0.44821   0.26725   1.000
    Og81    Og   0.37366   0.77644   0.92147   1.000
    Og82    Og   0.06698   0.55173   0.76711   1.000
    Og83    Og   0.12517   0.22381   0.42078   1.000
    Og84    Og   0.56535   0.94820   0.23267   1.000
    Og85    Og   0.62620   0.27659   0.57858   1.000
    Og86    Og   0.93297   0.05173   0.73281   1.000
    Og87    Og   0.87481   0.72367   0.07924   1.000
loop_
    _geom_bond_atom_site_label_1
    _geom_bond_atom_site_label_2
    _geom_bond_distance
    _geom_bond_site_symmetry_2
    _ccdc_geom_bond_type
    O31    C9        1.26323      .   S
    C9     O30       1.28318      .   S
    O55    C27       1.26344      .   S
    C27    O54       1.28279      .   S
    O30    Cd2       2.29595      .   S
    O54    Cd3       2.30516      .   S
    Cd3    O49       2.47241      .   S
    Cd3    O48       2.39188      .   S
    Cd2    O33       2.48024      .   S
    Cd2    O32       2.38060      .   S
    O49    C24       1.26986      .   S
    O33    C10       1.26918      .   S
    C24    O48       1.27608      .   S
    C10    O32       1.27705      .   S
    O40    C18       1.27719      .   S
    O40    Cd0       2.37949      .   S
    O13    C20       1.27599      .   S
    O13    Cd5       2.39254      .   S
    C18    O41       1.26903      .   S
    C20    O14       1.26995      .   S
    O41    Cd0       2.48215      .   S
    O14    Cd5       2.47164      .   S
    Cd0    O38       2.29648      .   S
    Cd5    O46       2.30438      .   S
    O46    C23       1.28284      .   S
    O38    C17       1.28313      .   S
    C23    O47       1.26339      .   S
    C17    O39       1.26332      .   S
    O51    C25       1.26331      .   S
    C25    O50       1.28313      .   S
    O35    C11       1.26340      .   S
    C11    O34       1.28285      .   S
    O50    Cd4       2.29646      .   S
    O34    Cd1       2.30440      .   S
    Cd1    O29       2.47167      .   S
    Cd1    O28       2.39260      .   S
    Cd4    O53       2.48217      .   S
    Cd4    O52       2.37952      .   S
    O29    C8        1.26996      .   S
    O53    C26       1.26903      .   S
    C8     O28       1.27599      .   S
    C26    O52       1.27719      .   S
    O44    C22       1.27707      .   S
    O44    Cd6       2.38056      .   S
    O36    C16       1.27608      .   S
    O36    Cd7       2.39182      .   S
    C22    O45       1.26919      .   S
    C16    O37       1.26986      .   S
    O45    Cd6       2.48036      .   S
    O37    Cd7       2.47257      .   S
    Cd6    O15       2.29596      .   S
    Cd7    O42       2.30521      .   S
    O42    C19       1.28279      .   S
    O15    C21       1.28317      .   S
    C19    O12       1.26343      .   S
    C21    O43       1.26323      .   S
    Cd0    Ts56      0.78191      .   S
    Cd0    Ts57      0.79011      .   S
    Cd1    Ts58      0.78221      .   S
    Cd1    Ts59      0.79075      .   S
    Cd2    Ts60      0.78176      .   S
    Cd2    Ts61      0.79015      .   S
    Cd3    Ts62      0.78242      .   S
    Cd3    Ts63      0.79075      .   S
    Cd4    Ts64      0.78192      .   S
    Cd4    Ts65      0.79011      .   S
    Cd5    Ts66      0.78220      .   S
    Cd5    Ts67      0.79077      .   S
    Cd6    Ts68      0.78177      .   S
    Cd6    Ts69      0.79015      .   S
    Cd7    Ts70      0.78242      .   S
    Cd7    Ts71      0.79073      .   S
    C8     Og72      0.50231      .   S
    C9     Og73      0.50225      .   S
    C10    Og74      0.50244      .   S
    C11    Og75      0.50221      .   S
    C16    Og76      0.50235      .   S
    C17    Og77      0.50226      .   S
    C18    Og78      0.50248      .   S
    C19    Og79      0.50222      .   S
    C20    Og80      0.50231      .   S
    C21    Og81      0.50225      .   S
    C22    Og82      0.50243      .   S
    C23    Og83      0.50221      .   S
    C24    Og84      0.50235      .   S
    C25    Og85      0.50226      .   S
    C26    Og86      0.50248      .   S
    C27    Og87      0.50222      .   S
