# CIF file generated by openbabel 2.4.90, see http://openbabel.sf.net
data_I
_chemical_name_common ''
_cell_length_a 13.07
_cell_length_b 15.248
_cell_length_c 19.142
_cell_angle_alpha 89.984
_cell_angle_beta 89.996
_cell_angle_gamma 89.964
_space_group_name_H-M_alt 'P 1'
_space_group_name_Hall 'P 1'
loop_
    _symmetry_equiv_pos_as_xyz
    x,y,z
loop_
    _atom_site_label
    _atom_site_type_symbol
    _atom_site_fract_x
    _atom_site_fract_y
    _atom_site_fract_z
    _atom_site_occupancy
    N0      N    0.00842   0.71950   0.99051   1.000
    N1      N    0.99316   0.28053   0.00981   1.000
    N2      N    0.50671   0.71944   0.50950   1.000
    N3      N    0.50656   0.78043   0.00992   1.000
    N4      N    0.53518   0.92612   0.73107   1.000
    N5      N    0.96590   0.07474   0.23095   1.000
    N6      N    0.99312   0.21977   0.50948   1.000
    N7      N    0.00846   0.78026   0.49050   1.000
    N8      N    0.49327   0.28059   0.49046   1.000
    N9      N    0.03503   0.57359   0.26908   1.000
    N10     N    0.46479   0.07490   0.26890   1.000
    N11     N    0.03502   0.92631   0.76903   1.000
    N12     N    0.49342   0.21960   0.99036   1.000
    N13     N    0.46486   0.42619   0.76896   1.000
    N14     N    0.96588   0.42644   0.73090   1.000
    N15     N    0.53510   0.57383   0.23101   1.000
    Zr16    Zr   0.70606   0.69179   0.66425   1.000
    O17     O    0.63570   0.70654   0.61347   1.000
    O18     O    0.64474   0.77515   0.68737   1.000
    O19     O    0.60803   0.58716   0.70857   1.000
    O20     O    0.82745   0.73517   0.59739   1.000
    Zr21    Zr   0.70606   0.80816   0.16427   1.000
    O22     O    0.63564   0.79338   0.11360   1.000
    O23     O    0.64472   0.72480   0.18736   1.000
    O24     O    0.82745   0.76472   0.09741   1.000
    O25     O    0.60800   0.91310   0.20855   1.000
    Zr26    Zr   0.20613   0.69194   0.83603   1.000
    O27     O    0.13605   0.70670   0.88662   1.000
    O28     O    0.14460   0.77538   0.81278   1.000
    O29     O    0.32675   0.73534   0.90301   1.000
    O30     O    0.10871   0.58728   0.79149   1.000
    Zr31    Zr   0.29392   0.30822   0.33572   1.000
    O32     O    0.17292   0.26485   0.40259   1.000
    O33     O    0.36427   0.29349   0.38650   1.000
    O34     O    0.35523   0.22512   0.31261   1.000
    O35     O    0.39194   0.41286   0.29140   1.000
    Zr36    Zr   0.79379   0.19204   0.66395   1.000
    O37     O    0.67313   0.23546   0.59709   1.000
    O38     O    0.89146   0.08730   0.70846   1.000
    O39     O    0.86428   0.20688   0.61337   1.000
    O40     O    0.85557   0.27551   0.68719   1.000
    Zr41    Zr   0.79384   0.30807   0.16395   1.000
    O42     O    0.89150   0.41274   0.20849   1.000
    O43     O    0.67323   0.26469   0.09704   1.000
    O44     O    0.85561   0.22490   0.18720   1.000
    O45     O    0.86433   0.29332   0.11345   1.000
    Zr46    Zr   0.29391   0.19186   0.83571   1.000
    O47     O    0.39197   0.08717   0.79143   1.000
    O48     O    0.17293   0.23530   0.90265   1.000
    O49     O    0.35525   0.27523   0.81261   1.000
    O50     O    0.36433   0.20664   0.88645   1.000
    Zr51    Zr   0.20619   0.80798   0.33602   1.000
    O52     O    0.32684   0.76456   0.40288   1.000
    O53     O    0.10875   0.91298   0.29152   1.000
    O54     O    0.13610   0.79314   0.38661   1.000
    O55     O    0.14463   0.72451   0.31279   1.000
loop_
    _geom_bond_atom_site_label_1
    _geom_bond_atom_site_label_2
    _geom_bond_distance
    _geom_bond_site_symmetry_2
    _ccdc_geom_bond_type
    Zr16   O17       1.35677      .   S
    N2     O17       2.61564      .   S
    Zr16   O18       1.56596      .   S
    N4     O18       2.83673      .   S
    Zr16   O19       2.21544      .   S
    N13    O19       3.29636      .   S
    Zr16   O20       2.14324      .   S
    N7     O20       3.20256  1_455   S
    Zr21   O22       1.35611      .   S
    N3     O22       2.61255      .   S
    Zr21   O23       1.56682      .   S
    N15    O23       2.83769      .   S
    Zr21   O24       2.14303      .   S
    N0     O24       3.20236  1_456   S
    Zr21   O25       2.21790      .   S
    N10    O25       3.30467  1_545   S
    Zr26   O27       1.35168      .   S
    N0     O27       2.60303      .   S
    Zr26   O28       1.56900      .   S
    N11    O28       2.83629      .   S
    Zr26   O29       2.13750      .   S
    N3     O29       3.19182  1_554   S
    Zr26   O30       2.21323      .   S
    N14    O30       3.29437  1_655   S
    Zr31   O32       2.13937      .   S
    N6     O32       3.19099  1_655   S
    Zr31   O33       1.35671      .   S
    N8     O33       2.61560      .   S
    Zr31   O34       1.56283      .   S
    N10    O34       2.82738      .   S
    Zr31   O35       2.21544      .   S
    N15    O35       3.29638      .   S
    Zr36   O37       2.13580      .   S
    N8     O37       3.18804      .   S
    Zr36   O38       2.21433      .   S
    N11    O38       3.29894  1_465   S
    Zr36   O39       1.35557      .   S
    N6     O39       2.61325      .   S
    Zr36   O40       1.57209      .   S
    N14    O40       2.84251      .   S
    Zr41   O42       2.21502      .   S
    N9     O42       3.29966  1_455   S
    Zr41   O43       2.13660      .   S
    N12    O43       3.18890  1_556   S
    Zr41   O44       1.56736      .   S
    N5     O44       2.83138      .   S
    Zr41   O45       1.35405      .   S
    N1     O45       2.60938      .   S
    Zr46   O47       2.21514      .   S
    N4     O47       3.29609  1_565   S
    Zr46   O48       2.14014      .   S
    N1     O48       3.19391  1_654   S
    Zr46   O49       1.56685      .   S
    N13    O49       2.83772      .   S
    Zr46   O50       1.35718      .   S
    N12    O50       2.61596      .   S
    Zr51   O52       2.13577      .   S
    N2     O52       3.18802      .   S
    Zr51   O53       2.21538      .   S
    N5     O53       3.30248  1_645   S
    Zr51   O54       1.35205      .   S
    N7     O54       2.60321      .   S
    Zr51   O55       1.57051      .   S
    N9     O55       2.83782      .   S
