# CIF file generated by openbabel 2.4.90, see http://openbabel.sf.net
data_I
_chemical_name_common ''
_cell_length_a 18.448
_cell_length_b 12.012
_cell_length_c 12.576
_cell_angle_alpha 79.494
_cell_angle_beta 74.765
_cell_angle_gamma 78.175
_space_group_name_H-M_alt 'P 1'
_space_group_name_Hall 'P 1'
loop_
    _symmetry_equiv_pos_as_xyz
    x,y,z
loop_
    _atom_site_label
    _atom_site_type_symbol
    _atom_site_fract_x
    _atom_site_fract_y
    _atom_site_fract_z
    _atom_site_occupancy
    H0      H    0.16917   0.07296   0.01312   1.000
    H1      H    0.66919   0.07297   0.01311   1.000
    H2      H    0.33084   0.92700   0.98689   1.000
    H3      H    0.83085   0.92700   0.98680   1.000
    C4      C    0.50832   0.47963   0.39006   1.000
    C5      C    0.00000   0.47963   0.39006   1.000
    C6      C    0.46328   0.58154   0.42701   1.000
    C7      C    0.96329   0.58154   0.42701   1.000
    C8      C    0.04432   0.39739   0.46350   1.000
    C9      C    0.54433   0.39740   0.46349   1.000
    C10     C    0.21403   0.99898   0.99810   1.000
    C11     C    0.71403   0.99897   0.99810   1.000
    C12     C    0.99170   0.52033   0.60995   1.000
    C13     C    0.49170   0.52033   0.60995   1.000
    C14     C    0.03674   0.41842   0.57000   1.000
    C15     C    0.53674   0.41843   0.57300   1.000
    C16     C    0.45570   0.60257   0.53651   1.000
    C17     C    0.95571   0.60258   0.53651   1.000
    C18     C    0.28599   0.00099   0.00190   1.000
    C19     C    0.78599   0.00098   0.00191   1.000
    S20     S    0.47394   0.77336   0.88046   1.000
    S21     S    0.97395   0.77336   0.88046   1.000
    S22     S    0.02607   0.22661   0.11955   1.000
    S23     S    0.52608   0.22661   0.11954   1.000
    O24     O    0.05977   0.73643   0.83333   1.000
    O25     O    0.55977   0.73643   0.83333   1.000
    O26     O    0.46264   0.87968   0.93497   1.000
    O27     O    0.96264   0.87967   0.93497   1.000
    O28     O    0.44423   0.67909   0.96455   1.000
    O29     O    0.94423   0.67909   0.96455   1.000
    O30     O    0.43708   0.80088   0.78509   1.000
    O31     O    0.93708   0.80088   0.78509   1.000
    O32     O    0.44025   0.26355   0.16660   1.000
    O33     O    0.94025   0.26355   0.16668   1.000
    O34     O    0.03737   0.12030   0.06504   1.000
    O35     O    0.53738   0.12030   0.06504   1.000
    O36     O    0.05579   0.32088   0.03546   1.000
    O37     O    0.55579   0.32088   0.03546   1.000
    O38     O    0.06294   0.19909   0.21492   1.000
    O39     O    0.56294   0.19909   0.21492   1.000
loop_
    _geom_bond_atom_site_label_1
    _geom_bond_atom_site_label_2
    _geom_bond_distance
    _geom_bond_site_symmetry_2
    _ccdc_geom_bond_type
    C18    H2        1.08991  1_544   S
    C18    C10       1.34614  1_544   S
    C19    H3        1.09005  1_544   S
    C19    C11       1.34618  1_544   S
    H1     C11       1.08993  1_544   S
    H0     C10       1.08992  1_544   S
    O36    S22       1.48801      .   S
    O37    S23       1.48793      .   S
    O34    S22       1.50971      .   S
    O35    S23       1.50966      .   S
    S23    O32       1.53933      .   S
    S23    O39       1.48412      .   S
    S22    O33       1.53929  1_455   S
    S22    O38       1.48404      .   S
    C5     C7        1.36945  1_455   S
    C5     C8        1.49346      .   S
    C4     C6        1.41156      .   S
    C4     C9        1.41084      .   S
    C6     C16       1.41097      .   S
    C7     C17       1.41101      .   S
    C9     C15       1.41110      .   S
    C8     C14       1.37396      .   S
    C16    C13       1.41091      .   S
    C17    C12       1.41083      .   S
    C14    C12       1.42454  1_455   S
    C15    C13       1.41156      .   S
    O31    S21       1.48404      .   S
    O30    S20       1.48401      .   S
    O24    S21       1.53928  1_455   S
    O25    S20       1.53946      .   S
    S21    O27       1.50972      .   S
    S21    O29       1.48800      .   S
    S20    O26       1.50973      .   S
    S20    O28       1.48800      .   S
