# CIF file generated by openbabel 2.4.90, see http://openbabel.sf.net
data_I
_chemical_name_common ''
_cell_length_a 18.448
_cell_length_b 12.012
_cell_length_c 12.576
_cell_angle_alpha 79.494
_cell_angle_beta 74.765
_cell_angle_gamma 78.175
_space_group_name_H-M_alt 'P 1'
_space_group_name_Hall 'P 1'
loop_
    _symmetry_equiv_pos_as_xyz
    x,y,z
loop_
    _atom_site_label
    _atom_site_type_symbol
    _atom_site_fract_x
    _atom_site_fract_y
    _atom_site_fract_z
    _atom_site_occupancy
    H0      H    0.03958   0.36753   0.26099   1.000
    H1      H    0.53958   0.36753   0.26099   1.000
    H2      H    0.46548   0.47961   0.24389   1.000
    H3      H    0.96548   0.47961   0.24390   1.000
    H4      H    0.02151   0.57951   0.04893   1.000
    H5      H    0.52152   0.57951   0.04893   1.000
    H6      H    0.22408   0.63288   0.11169   1.000
    H7      H    0.72409   0.63288   0.11169   1.000
    H8      H    0.40348   0.61937   0.29440   1.000
    H9      H    0.90349   0.61937   0.29440   1.000
    H10     H    0.36279   0.70096   0.40399   1.000
    H11     H    0.86279   0.70096   0.40399   1.000
    H12     H    0.43379   0.76370   0.12083   1.000
    H13     H    0.93380   0.76369   0.12083   1.000
    H14     H    0.03186   0.97964   0.25155   1.000
    H15     H    0.53187   0.97962   0.25154   1.000
    H16     H    0.06229   0.25191   0.37263   1.000
    H17     H    0.56230   0.25191   0.37263   1.000
    H18     H    0.09049   0.21770   0.49831   1.000
    H19     H    0.59050   0.21770   0.49831   1.000
    H20     H    0.17116   0.24867   0.20342   1.000
    H21     H    0.67117   0.24867   0.20340   1.000
    H22     H    0.33628   0.32535   0.34382   1.000
    H23     H    0.83629   0.32535   0.34382   1.000
    H24     H    0.46044   0.63243   0.73902   1.000
    H25     H    0.96045   0.63243   0.73902   1.000
    H26     H    0.03454   0.52035   0.75611   1.000
    H27     H    0.53454   0.52035   0.75612   1.000
    H28     H    0.47850   0.42046   0.95108   1.000
    H29     H    0.97852   0.42046   0.95107   1.000
    H30     H    0.27594   0.36709   0.88831   1.000
    H31     H    0.77595   0.36708   0.88830   1.000
    H32     H    0.09653   0.38060   0.70561   1.000
    H33     H    0.59654   0.38060   0.70561   1.000
    H34     H    0.13723   0.29901   0.59601   1.000
    H35     H    0.63724   0.29901   0.59601   1.000
    H36     H    0.06622   0.23627   0.87918   1.000
    H37     H    0.56624   0.23627   0.87910   1.000
    H38     H    0.46815   0.02034   0.74846   1.000
    H39     H    0.96817   0.02033   0.74846   1.000
    H40     H    0.43773   0.74806   0.62738   1.000
    H41     H    0.93774   0.74806   0.62738   1.000
    H42     H    0.40952   0.78226   0.50170   1.000
    H43     H    0.90953   0.78227   0.50170   1.000
    H44     H    0.32885   0.75130   0.79658   1.000
    H45     H    0.82887   0.75130   0.79650   1.000
    H46     H    0.16373   0.67462   0.65619   1.000
    H47     H    0.66374   0.67462   0.65619   1.000
    C48     C    0.51893   0.45803   0.27155   1.000
    C49     C    0.00000   0.45803   0.27155   1.000
    C50     C    0.06831   0.57540   0.08807   1.000
    C51     C    0.56832   0.57540   0.08807   1.000
    C52     C    0.17083   0.60233   0.12302   1.000
    C53     C    0.67083   0.60233   0.12302   1.000
    C54     C    0.41748   0.66441   0.35277   1.000
    C55     C    0.91749   0.66441   0.35277   1.000
    C56     C    0.45501   0.80116   0.17690   1.000
    C57     C    0.95502   0.80116   0.17692   1.000
    C58     C    0.00522   0.90897   0.24576   1.000
    C59     C    0.50522   0.90896   0.24576   1.000
    C60     C    0.08901   0.28426   0.42648   1.000
    C61     C    0.58902   0.28427   0.42648   1.000
    C62     C    0.20032   0.27238   0.25800   1.000
    C63     C    0.70033   0.27238   0.25870   1.000
    C64     C    0.28224   0.31198   0.33378   1.000
    C65     C    0.78225   0.31198   0.33378   1.000
    C66     C    0.98109   0.54193   0.72846   1.000
    C67     C    0.48109   0.54193   0.72846   1.000
    C68     C    0.43170   0.42456   0.91193   1.000
    C69     C    0.93171   0.42456   0.91193   1.000
    C70     C    0.32919   0.39763   0.87698   1.000
    C71     C    0.82920   0.39763   0.87690   1.000
    C72     C    0.08254   0.33556   0.64720   1.000
    C73     C    0.58254   0.33556   0.64723   1.000
    C74     C    0.04501   0.19881   0.82308   1.000
    C75     C    0.54502   0.19881   0.82308   1.000
    C76     C    0.49480   0.09101   0.75424   1.000
    C77     C    0.99481   0.09100   0.75424   1.000
    C78     C    0.41101   0.71570   0.57353   1.000
    C79     C    0.91102   0.71570   0.57353   1.000
    C80     C    0.29969   0.72759   0.74131   1.000
    C81     C    0.79971   0.72759   0.74131   1.000
    C82     C    0.21777   0.68799   0.66620   1.000
    C83     C    0.71778   0.68799   0.66623   1.000
    N84     N    0.12997   0.62571   0.04244   1.000
    N85     N    0.62998   0.62571   0.04244   1.000
    N86     N    0.07230   0.52613   0.19157   1.000
    N87     N    0.57231   0.52613   0.19157   1.000
    N88     N    0.13788   0.54126   0.21500   1.000
    N89     N    0.63789   0.54126   0.21530   1.000
    N90     N    0.48705   0.89591   0.15048   1.000
    N91     N    0.98706   0.89591   0.15040   1.000
    N92     N    0.45484   0.75898   0.28391   1.000
    N93     N    0.95485   0.75899   0.28391   1.000
    N94     N    0.98636   0.82733   0.32958   1.000
    N95     N    0.48637   0.82733   0.32950   1.000
    N96     N    0.27361   0.28497   0.23703   1.000
    N97     N    0.77363   0.28497   0.23703   1.000
    N98     N    0.16746   0.29124   0.36400   1.000
    N99     N    0.66747   0.29125   0.36404   1.000
    N100    N    0.21883   0.31686   0.41360   1.000
    N101    N    0.71885   0.31686   0.41360   1.000
    N102    N    0.37005   0.37426   0.95757   1.000
    N103    N    0.87006   0.37426   0.95757   1.000
    N104    N    0.42772   0.47384   0.80840   1.000
    N105    N    0.92772   0.47384   0.80844   1.000
    N106    N    0.36213   0.45870   0.78471   1.000
    N107    N    0.86214   0.45870   0.78471   1.000
    N108    N    0.01297   0.10405   0.84953   1.000
    N109    N    0.51297   0.10406   0.84953   1.000
    N110    N    0.04518   0.24098   0.71610   1.000
    N111    N    0.54518   0.24098   0.71610   1.000
    N112    N    0.51366   0.17264   0.67043   1.000
    N113    N    0.00000   0.17263   0.67043   1.000
    N114    N    0.22640   0.71499   0.76298   1.000
    N115    N    0.72641   0.71499   0.76298   1.000
    N116    N    0.33255   0.70872   0.63597   1.000
    N117    N    0.83256   0.70872   0.63597   1.000
    N118    N    0.28118   0.68310   0.58641   1.000
    N119    N    0.78119   0.68311   0.58641   1.000
loop_
    _geom_bond_atom_site_label_1
    _geom_bond_atom_site_label_2
    _geom_bond_distance
    _geom_bond_site_symmetry_2
    _ccdc_geom_bond_type
    N84    C50       1.34182      .   S
    N84    C52       1.37289      .   S
    N85    C51       1.34180      .   S
    N85    C53       1.37288      .   S
    H4     C50       1.08963      .   S
    H5     C51       1.08962      .   S
    C50    N86       1.34218      .   S
    C51    N87       1.34219      .   S
    H6     C52       1.08407      .   S
    H7     C53       1.08407      .   S
    H13    C57       1.08918      .   S
    H12    C56       1.08899      .   S
    C53    N89       1.32507      .   S
    C52    N88       1.32260      .   S
    N91    C57       1.33784      .   S
    N91    C58       1.36977  1_655   S
    N90    C56       1.33786      .   S
    N90    C59       1.36891      .   S
    C56    N92       1.34815      .   S
    C57    N93       1.34791      .   S
    N86    N88       1.37140      .   S
    N86    C49       1.70347      .   S
    N87    N89       1.37316      .   S
    N87    C48       1.46967      .   S
    H21    C63       1.08896      .   S
    H20    C62       1.08159      .   S
    N97    C63       1.34190      .   S
    N97    C65       1.37034      .   S
    N96    C62       1.34264      .   S
    N96    C64       1.37033      .   S
    H2     C48       1.09683      .   S
    H3     C49       0.78065  1_655   S
    C59    H15       1.08619      .   S
    C59    N95       1.32747      .   S
    C58    H14       1.08623      .   S
    C58    N94       1.32807  1_455   S
    C62    N98       1.35092      .   S
    C63    N99       1.34348      .   S
    H0     C49       1.18696      .   S
    H1     C48       1.09584      .   S
    N93    N94       1.37294      .   S
    N93    C55       1.47104      .   S
    N92    N95       1.37242      .   S
    N92    C54       1.47106      .   S
    H9     C55       1.09544      .   S
    H8     C54       1.09542      .   S
    C65    H23       1.08384      .   S
    C65    N101      1.32499      .   S
    C64    H22       1.08383      .   S
    C64    N100      1.32499      .   S
    C54    H10       1.09809      .   S
    C55    H11       1.09808      .   S
    N98    N100      1.37187      .   S
    N98    C60       1.46540      .   S
    N99    N101      1.37154      .   S
    N99    C61       1.46526      .   S
    H17    C61       1.09663      .   S
    H16    C60       1.09664      .   S
    C61    H19       1.09394      .   S
    C60    H18       1.09394      .   S
    H43    C79       1.09394      .   S
    H42    C78       1.09394      .   S
    C78    H40       1.09663      .   S
    C78    N116      1.46526      .   S
    C79    H41       1.09664      .   S
    C79    N117      1.46526      .   S
    N119   N117      1.37150      .   S
    N119   C83       1.32499      .   S
    N118   N116      1.37153      .   S
    N118   C82       1.32479      .   S
    H34    C72       1.09791      .   S
    H35    C73       1.09810      .   S
    N116   C80       1.34348      .   S
    N117   C81       1.34346      .   S
    C72    H32       1.09584      .   S
    C72    N110      1.47119      .   S
    C73    H33       1.09554      .   S
    C73    N111      1.47109      .   S
    H46    C82       1.08370      .   S
    H47    C83       1.08385      .   S
    C82    N114      1.37068      .   S
    C83    N115      1.37030      .   S
    N113   N110      1.54999      .   S
    N113   C77       1.30003  1_455   S
    N112   N111      1.37306      .   S
    N112   C76       1.32799      .   S
    N111   C75       1.34780      .   S
    N110   C74       1.34778      .   S
    C66    H25       1.09583      .   S
    C66    H26       1.09678  1_655   S
    C66    N105      1.46957      .   S
    C67    H24       1.09585      .   S
    C67    H27       1.09683      .   S
    C67    N104      1.46946      .   S
    C81    N115      1.34192      .   S
    C81    H45       1.08783      .   S
    C80    N114      1.34191      .   S
    C80    H44       1.08864      .   S
    H39    C77       1.08619      .   S
    H38    C76       1.08619      .   S
    C76    N109      1.36903      .   S
    C77    N108      1.36891  1_655   S
    N106   N104      1.37292      .   S
    N106   C70       1.32499      .   S
    N107   N105      1.37316      .   S
    N107   C71       1.32434      .   S
    N104   C68       1.34252      .   S
    N105   C69       1.34208      .   S
    C75    N109      1.33786      .   S
    C75    H37       1.08848      .   S
    C74    N108      1.33786      .   S
    C74    H36       1.08928      .   S
    C71    H31       1.08393      .   S
    C71    N103      1.37384      .   S
    C70    H30       1.08407      .   S
    C70    N102      1.37297      .   S
    C69    H29       1.08964      .   S
    C69    N103      1.34183      .   S
    C68    H28       1.08968      .   S
    C68    N102      1.34183      .   S
