# CIF file generated by openbabel 2.4.90, see http://openbabel.sf.net
data_I
_chemical_name_common ''
_cell_length_a 18.448
_cell_length_b 12.012
_cell_length_c 12.576
_cell_angle_alpha 79.494
_cell_angle_beta 74.765
_cell_angle_gamma 78.175
_space_group_name_H-M_alt 'P 1'
_space_group_name_Hall 'P 1'
loop_
    _symmetry_equiv_pos_as_xyz
    x,y,z
loop_
    _atom_site_label
    _atom_site_type_symbol
    _atom_site_fract_x
    _atom_site_fract_y
    _atom_site_fract_z
    _atom_site_occupancy
    Mc0     Mc   0.08299   0.53884   0.15972   1.000
    Mc1     Mc   0.95379   0.79204   0.26101   1.000
    Mc2     Mc   0.18917   0.28053   0.34511   1.000
    Mc3     Mc   0.81086   0.71943   0.65482   1.000
    Mc4     Mc   0.04486   0.20792   0.73898   1.000
    Mc5     Mc   0.91514   0.46112   0.84025   1.000
    Mc6     Mc   0.58489   0.53884   0.15975   1.000
    Mc7     Mc   0.45379   0.79204   0.26101   1.000
    Mc8     Mc   0.68918   0.28053   0.34518   1.000
    Mc9     Mc   0.31084   0.71943   0.65483   1.000
    Mc10    Mc   0.54623   0.20793   0.73898   1.000
    Mc11    Mc   0.41513   0.46113   0.84026   1.000
