# CIF file generated by openbabel 2.4.90, see http://openbabel.sf.net
data_I
_chemical_name_common ''
_cell_length_a 18.448
_cell_length_b 12.012
_cell_length_c 12.576
_cell_angle_alpha 79.494
_cell_angle_beta 74.765
_cell_angle_gamma 78.175
_space_group_name_H-M_alt 'P 1'
_space_group_name_Hall 'P 1'
loop_
    _symmetry_equiv_pos_as_xyz
    x,y,z
loop_
    _atom_site_label
    _atom_site_type_symbol
    _atom_site_fract_x
    _atom_site_fract_y
    _atom_site_fract_z
    _atom_site_occupancy
    Lv0     Lv   0.99862   0.49998   0.49951   1.000
    Lv1     Lv   0.47553   0.77389   0.87968   1.000
    Lv2     Lv   0.50001   0.49998   0.50000   1.000
    Lv3     Lv   0.97553   0.77389   0.87968   1.000
    Lv4     Lv   0.75002   0.99998   0.99998   1.000
    Lv5     Lv   0.52449   0.22609   0.12031   1.000
    Lv6     Lv   0.02448   0.22609   0.12033   1.000
    Lv7     Lv   0.25001   0.99998   0.00000   1.000
