# CIF file generated by openbabel 2.4.90, see http://openbabel.sf.net
data_I
_chemical_name_common ''
_cell_length_a 18.448
_cell_length_b 12.012
_cell_length_c 12.576
_cell_angle_alpha 79.494
_cell_angle_beta 74.765
_cell_angle_gamma 78.175
_space_group_name_H-M_alt 'P 1'
_space_group_name_Hall 'P 1'
loop_
    _symmetry_equiv_pos_as_xyz
    x,y,z
loop_
    _atom_site_label
    _atom_site_type_symbol
    _atom_site_fract_x
    _atom_site_fract_y
    _atom_site_fract_z
    _atom_site_occupancy
    Zn0     Zn   0.64370   0.74303   0.90286   1.000
    Zn1     Zn   0.35632   0.25693   0.09715   1.000
    Zn2     Zn   0.85632   0.25693   0.09715   1.000
    Zn3     Zn   0.00000   1.00000   0.00000   1.000
    Zn4     Zn   0.50001   1.00000   0.00000   1.000
    H5      H    0.03958   0.36753   0.26099   1.000
    H6      H    0.53958   0.36753   0.26099   1.000
    H7      H    0.46548   0.47961   0.24389   1.000
    H8      H    0.96548   0.47961   0.24390   1.000
    H9      H    0.02151   0.57951   0.04893   1.000
    H10     H    0.52152   0.57951   0.04893   1.000
    H11     H    0.22408   0.63288   0.11169   1.000
    H12     H    0.72409   0.63288   0.11169   1.000
    H13     H    0.40348   0.61937   0.29440   1.000
    H14     H    0.90349   0.61937   0.29440   1.000
    H15     H    0.36279   0.70096   0.40399   1.000
    H16     H    0.86279   0.70096   0.40399   1.000
    H17     H    0.43379   0.76370   0.12083   1.000
    H18     H    0.93380   0.76369   0.12083   1.000
    H19     H    0.03186   0.97964   0.25155   1.000
    H20     H    0.53187   0.97962   0.25154   1.000
    H21     H    0.06229   0.25191   0.37263   1.000
    H22     H    0.56230   0.25191   0.37263   1.000
    H23     H    0.09049   0.21770   0.49831   1.000
    H24     H    0.59050   0.21770   0.49831   1.000
    H25     H    0.17116   0.24867   0.20342   1.000
    H26     H    0.67117   0.24867   0.20340   1.000
    H27     H    0.33628   0.32535   0.34382   1.000
    H28     H    0.83629   0.32535   0.34382   1.000
    H29     H    0.16917   0.07296   0.01312   1.000
    H30     H    0.66919   0.07297   0.01311   1.000
    H31     H    0.46044   0.63243   0.73902   1.000
    Zn32    Zn   0.14370   0.74303   0.90286   1.000
    H33     H    0.96045   0.63243   0.73902   1.000
    H34     H    0.03454   0.52035   0.75611   1.000
    H35     H    0.53454   0.52035   0.75612   1.000
    H36     H    0.47850   0.42046   0.95108   1.000
    H37     H    0.97852   0.42046   0.95107   1.000
    H38     H    0.27594   0.36709   0.88831   1.000
    H39     H    0.77595   0.36708   0.88830   1.000
    H40     H    0.09653   0.38060   0.70561   1.000
    H41     H    0.59654   0.38060   0.70561   1.000
    H42     H    0.13723   0.29901   0.59601   1.000
    H43     H    0.63724   0.29901   0.59601   1.000
    H44     H    0.06622   0.23627   0.87918   1.000
    H45     H    0.56624   0.23627   0.87910   1.000
    H46     H    0.46815   0.02034   0.74846   1.000
    H47     H    0.96817   0.02033   0.74846   1.000
    H48     H    0.43773   0.74806   0.62738   1.000
    H49     H    0.93774   0.74806   0.62738   1.000
    H50     H    0.40952   0.78226   0.50170   1.000
    H51     H    0.90953   0.78227   0.50170   1.000
    H52     H    0.32885   0.75130   0.79658   1.000
    H53     H    0.82887   0.75130   0.79650   1.000
    H54     H    0.16373   0.67462   0.65619   1.000
    H55     H    0.66374   0.67462   0.65619   1.000
    H56     H    0.33084   0.92700   0.98689   1.000
    H57     H    0.83085   0.92700   0.98680   1.000
    C58     C    0.50832   0.47963   0.39006   1.000
    C59     C    0.00000   0.47963   0.39006   1.000
    C60     C    0.46328   0.58154   0.42701   1.000
    C61     C    0.96329   0.58154   0.42701   1.000
    C62     C    0.04432   0.39739   0.46350   1.000
    C63     C    0.54433   0.39740   0.46349   1.000
    C64     C    0.51893   0.45803   0.27155   1.000
    C65     C    0.00000   0.45803   0.27155   1.000
    C66     C    0.06831   0.57540   0.08807   1.000
    C67     C    0.56832   0.57540   0.08807   1.000
    C68     C    0.17083   0.60233   0.12302   1.000
    C69     C    0.67083   0.60233   0.12302   1.000
    C70     C    0.41748   0.66441   0.35277   1.000
    C71     C    0.91749   0.66441   0.35277   1.000
    C72     C    0.45501   0.80116   0.17690   1.000
    C73     C    0.95502   0.80116   0.17692   1.000
    C74     C    0.00522   0.90897   0.24576   1.000
    C75     C    0.50522   0.90896   0.24576   1.000
    C76     C    0.08901   0.28426   0.42648   1.000
    C77     C    0.58902   0.28427   0.42648   1.000
    C78     C    0.20032   0.27238   0.25800   1.000
    C79     C    0.70033   0.27238   0.25870   1.000
    C80     C    0.28224   0.31198   0.33378   1.000
    C81     C    0.78225   0.31198   0.33378   1.000
    C82     C    0.19321   0.89627   0.97144   1.000
    C83     C    0.69322   0.89627   0.97144   1.000
    C84     C    0.21403   0.99898   0.99810   1.000
    C85     C    0.71403   0.99897   0.99810   1.000
    C86     C    0.99170   0.52033   0.60995   1.000
    C87     C    0.49170   0.52033   0.60995   1.000
    C88     C    0.03674   0.41842   0.57000   1.000
    C89     C    0.53674   0.41843   0.57300   1.000
    C90     C    0.45570   0.60257   0.53651   1.000
    C91     C    0.95571   0.60258   0.53651   1.000
    C92     C    0.98109   0.54193   0.72846   1.000
    C93     C    0.48109   0.54193   0.72846   1.000
    C94     C    0.43170   0.42456   0.91193   1.000
    C95     C    0.93171   0.42456   0.91193   1.000
    C96     C    0.32919   0.39763   0.87698   1.000
    C97     C    0.82920   0.39763   0.87690   1.000
    C98     C    0.08254   0.33556   0.64720   1.000
    C99     C    0.58254   0.33556   0.64723   1.000
    C100    C    0.04501   0.19881   0.82308   1.000
    C101    C    0.54502   0.19881   0.82308   1.000
    C102    C    0.49480   0.09101   0.75424   1.000
    C103    C    0.99481   0.09100   0.75424   1.000
    C104    C    0.41101   0.71570   0.57353   1.000
    C105    C    0.91102   0.71570   0.57353   1.000
    C106    C    0.29969   0.72759   0.74131   1.000
    C107    C    0.79971   0.72759   0.74131   1.000
    C108    C    0.21777   0.68799   0.66620   1.000
    C109    C    0.71778   0.68799   0.66623   1.000
    C110    C    0.30680   0.10369   0.02856   1.000
    C111    C    0.80681   0.10369   0.02850   1.000
    C112    C    0.28599   0.00099   0.00190   1.000
    C113    C    0.78599   0.00098   0.00191   1.000
    S114    S    0.47394   0.77336   0.88046   1.000
    S115    S    0.97395   0.77336   0.88046   1.000
    S116    S    0.02607   0.22661   0.11955   1.000
    S117    S    0.52608   0.22661   0.11954   1.000
    N118    N    0.12997   0.62571   0.04244   1.000
    N119    N    0.62998   0.62571   0.04244   1.000
    N120    N    0.07230   0.52613   0.19157   1.000
    N121    N    0.57231   0.52613   0.19157   1.000
    N122    N    0.13788   0.54126   0.21500   1.000
    N123    N    0.63789   0.54126   0.21530   1.000
    N124    N    0.48705   0.89591   0.15048   1.000
    N125    N    0.98706   0.89591   0.15040   1.000
    N126    N    0.45484   0.75898   0.28391   1.000
    N127    N    0.95485   0.75899   0.28391   1.000
    N128    N    0.98636   0.82733   0.32958   1.000
    N129    N    0.48637   0.82733   0.32950   1.000
    N130    N    0.27361   0.28497   0.23703   1.000
    N131    N    0.77363   0.28497   0.23703   1.000
    N132    N    0.16746   0.29124   0.36400   1.000
    N133    N    0.66747   0.29125   0.36404   1.000
    N134    N    0.21883   0.31686   0.41360   1.000
    N135    N    0.71885   0.31686   0.41360   1.000
    N136    N    0.37005   0.37426   0.95757   1.000
    N137    N    0.87006   0.37426   0.95757   1.000
    N138    N    0.42772   0.47384   0.80840   1.000
    N139    N    0.92772   0.47384   0.80844   1.000
    N140    N    0.36213   0.45870   0.78471   1.000
    N141    N    0.86214   0.45870   0.78471   1.000
    N142    N    0.01297   0.10405   0.84953   1.000
    N143    N    0.51297   0.10406   0.84953   1.000
    N144    N    0.04518   0.24098   0.71610   1.000
    N145    N    0.54518   0.24098   0.71610   1.000
    N146    N    0.51366   0.17264   0.67043   1.000
    N147    N    0.00000   0.17263   0.67043   1.000
    N148    N    0.22640   0.71499   0.76298   1.000
    N149    N    0.72641   0.71499   0.76298   1.000
    N150    N    0.33255   0.70872   0.63597   1.000
    N151    N    0.83256   0.70872   0.63597   1.000
    N152    N    0.28118   0.68310   0.58641   1.000
    N153    N    0.78119   0.68311   0.58641   1.000
    O154    O    0.05977   0.73643   0.83333   1.000
    O155    O    0.55977   0.73643   0.83333   1.000
    O156    O    0.46264   0.87968   0.93497   1.000
    O157    O    0.96264   0.87967   0.93497   1.000
    O158    O    0.44423   0.67909   0.96455   1.000
    O159    O    0.94423   0.67909   0.96455   1.000
    O160    O    0.43708   0.80088   0.78509   1.000
    O161    O    0.93708   0.80088   0.78509   1.000
    O162    O    0.12675   0.90589   0.94794   1.000
    O163    O    0.62676   0.90589   0.94793   1.000
    O164    O    0.23841   0.80249   0.96781   1.000
    O165    O    0.73842   0.80249   0.96779   1.000
    O166    O    0.44025   0.26355   0.16660   1.000
    O167    O    0.94025   0.26355   0.16668   1.000
    O168    O    0.03737   0.12030   0.06504   1.000
    O169    O    0.53738   0.12030   0.06504   1.000
    O170    O    0.05579   0.32088   0.03546   1.000
    O171    O    0.55579   0.32088   0.03546   1.000
    O172    O    0.06294   0.19909   0.21492   1.000
    O173    O    0.56294   0.19909   0.21492   1.000
    O174    O    0.37327   0.09407   0.05207   1.000
    O175    O    0.87328   0.09408   0.05205   1.000
    O176    O    0.26160   0.19747   0.03221   1.000
    O177    O    0.76162   0.19747   0.03200   1.000
loop_
    _geom_bond_atom_site_label_1
    _geom_bond_atom_site_label_2
    _geom_bond_distance
    _geom_bond_site_symmetry_2
    _ccdc_geom_bond_type
    Zn3    O168      2.09003  1_565   S
    Zn3    N125      2.05433  1_455   S
    Zn3    N142      2.05486  1_564   S
    Zn3    O157      2.09007  1_454   S
    C112   C110      1.48141      .   S
    C112   H56       1.08991  1_544   S
    C112   C84       1.34614  1_544   S
    C113   C111      1.48106      .   S
    C113   H57       1.09005  1_544   S
    C113   C85       1.34618  1_544   S
    H30    C85       1.08993  1_544   S
    H29    C84       1.08992  1_544   S
    C111   O177      1.25698      .   S
    C111   O175      1.31340      .   S
    C110   O176      1.25702      .   S
    C110   O174      1.31307      .   S
    O170   S116      1.48801      .   S
    O171   S117      1.48793      .   S
    N118   C66       1.34182      .   S
    N118   C68       1.37289      .   S
    N118   Zn32      2.03516  1_554   S
    N119   C67       1.34180      .   S
    N119   C69       1.37288      .   S
    N119   Zn0       2.03517  1_554   S
    H9     C66       1.08963      .   S
    H10    C67       1.08962      .   S
    O175   Zn2       2.07534      .   S
    O174   Zn1       2.07529      .   S
    O168   S116      1.50971      .   S
    O169   S117      1.50966      .   S
    O169   Zn4       2.09001  1_545   S
    C66    N120      1.34218      .   S
    C67    N121      1.34219      .   S
    Zn1    O166      1.98822      .   S
    Zn1    N130      2.03240      .   S
    Zn1    N136      2.03520  1_554   S
    Zn2    O167      1.98885      .   S
    Zn2    N131      2.03233      .   S
    Zn2    N137      2.03518  1_554   S
    H11    C68       1.08407      .   S
    H12    C69       1.08407      .   S
    S117   O166      1.53933      .   S
    S117   O173      1.48412      .   S
    S116   O167      1.53929  1_455   S
    S116   O172      1.48404      .   S
    H18    C73       1.08918      .   S
    H17    C72       1.08899      .   S
    C69    N123      1.32507      .   S
    C68    N122      1.32260      .   S
    N125   C73       1.33784      .   S
    N125   C74       1.36977  1_655   S
    N124   C72       1.33786      .   S
    N124   C75       1.36891      .   S
    N124   Zn4       2.05513      .   S
    C72    N126      1.34815      .   S
    C73    N127      1.34791      .   S
    N120   N122      1.37140      .   S
    N120   C65       1.70347      .   S
    N121   N123      1.37316      .   S
    N121   C64       1.46967      .   S
    H26    C79       1.08896      .   S
    H25    C78       1.08159      .   S
    N131   C79       1.34190      .   S
    N131   C81       1.37034      .   S
    N130   C78       1.34264      .   S
    N130   C80       1.37033      .   S
    H7     C64       1.09683      .   S
    H8     C65       0.78065  1_655   S
    C75    H20       1.08619      .   S
    C75    N129      1.32747      .   S
    C74    H19       1.08623      .   S
    C74    N128      1.32807  1_455   S
    C78    N132      1.35092      .   S
    C79    N133      1.34348      .   S
    H5     C65       1.18696      .   S
    H6     C64       1.09584      .   S
    C65    C59       1.55871      .   S
    C64    C58       1.51452      .   S
    N127   N128      1.37294      .   S
    N127   C71       1.47104      .   S
    N126   N129      1.37242      .   S
    N126   C70       1.47106      .   S
    H14    C71       1.09544      .   S
    H13    C70       1.09542      .   S
    C81    H28       1.08384      .   S
    C81    N135      1.32499      .   S
    C80    H27       1.08383      .   S
    C80    N134      1.32499      .   S
    C70    H15       1.09809      .   S
    C70    C60       1.51902      .   S
    C71    H16       1.09808      .   S
    C71    C61       1.51898      .   S
    N132   N134      1.37187      .   S
    N132   C76       1.46540      .   S
    N133   N135      1.37154      .   S
    N133   C77       1.46526      .   S
    H22    C77       1.09663      .   S
    H21    C76       1.09664      .   S
    C59    C61       1.36945  1_455   S
    C59    C62       1.49346      .   S
    C58    C60       1.41156      .   S
    C58    C63       1.41084      .   S
    C77    C63       1.52077      .   S
    C77    H24       1.09394      .   S
    C76    C62       1.52079      .   S
    C76    H23       1.09394      .   S
    C60    C90       1.41097      .   S
    C61    C91       1.41101      .   S
    C63    C89       1.41110      .   S
    C62    C88       1.37396      .   S
    H51    C105      1.09394      .   S
    H50    C104      1.09394      .   S
    C90    C104      1.52082      .   S
    C90    C87       1.41091      .   S
    C91    C105      1.52079      .   S
    C91    C86       1.41083      .   S
    C88    C86       1.42454  1_455   S
    C88    C98       1.54314      .   S
    C89    C87       1.41156      .   S
    C89    C99       1.51894      .   S
    C104   H48       1.09663      .   S
    C104   N150      1.46526      .   S
    C105   H49       1.09664      .   S
    C105   N151      1.46526      .   S
    N153   N151      1.37150      .   S
    N153   C109      1.32499      .   S
    N152   N150      1.37153      .   S
    N152   C108      1.32479      .   S
    H42    C98       1.09791      .   S
    H43    C99       1.09810      .   S
    C86    C92       1.51453      .   S
    C87    C93       1.51451      .   S
    N150   C106      1.34348      .   S
    N151   C107      1.34346      .   S
    C98    H40       1.09584      .   S
    C98    N144      1.47119      .   S
    C99    H41       1.09554      .   S
    C99    N145      1.47109      .   S
    H54    C108      1.08370      .   S
    H55    C109      1.08385      .   S
    C108   N148      1.37068      .   S
    C109   N149      1.37030      .   S
    N147   N144      1.54999      .   S
    N147   C103      1.30003  1_455   S
    N146   N145      1.37306      .   S
    N146   C102      1.32799      .   S
    N145   C101      1.34780      .   S
    N144   C100      1.34778      .   S
    C92    H33       1.09583      .   S
    C92    H34       1.09678  1_655   S
    C92    N139      1.46957      .   S
    C93    H31       1.09585      .   S
    C93    H35       1.09683      .   S
    C93    N138      1.46946      .   S
    C107   N149      1.34192      .   S
    C107   H53       1.08783      .   S
    C106   N148      1.34191      .   S
    C106   H52       1.08864      .   S
    H47    C103      1.08619      .   S
    H46    C102      1.08619      .   S
    C102   N143      1.36903      .   S
    C103   N142      1.36891  1_655   S
    N148   Zn32      2.03237      .   S
    N149   Zn0       2.03245      .   S
    N140   N138      1.37292      .   S
    N140   C96       1.32499      .   S
    N141   N139      1.37316      .   S
    N141   C97       1.32434      .   S
    O161   S115      1.48404      .   S
    O160   S114      1.48401      .   S
    N138   C94       1.34252      .   S
    N139   C95       1.34208      .   S
    C101   N143      1.33786      .   S
    C101   H45       1.08848      .   S
    C100   N142      1.33786      .   S
    C100   H44       1.08928      .   S
    O154   S115      1.53928  1_455   S
    O154   Zn32      1.98880      .   S
    O155   S114      1.53946      .   S
    O155   Zn0       1.98880      .   S
    N143   Zn4       2.05487  1_546   S
    C97    H39       1.08393      .   S
    C97    N137      1.37384      .   S
    C96    H38       1.08407      .   S
    C96    N136      1.37297      .   S
    S115   O157      1.50972      .   S
    S115   O159      1.48800      .   S
    S114   O156      1.50973      .   S
    S114   O158      1.48800      .   S
    Zn0    O163      2.07530      .   S
    Zn32   O162      2.07532      .   S
    C95    H37       1.08964      .   S
    C95    N137      1.34183      .   S
    C94    H36       1.08968      .   S
    C94    N136      1.34183      .   S
    O156   Zn4       2.09016  1_556   S
    O163   C83       1.31304      .   S
    O162   C82       1.31300      .   S
    O165   C83       1.25701      .   S
    O164   C82       1.25703      .   S
    C82    C84       1.48144      .   S
    C83    C85       1.48138      .   S
