# CIF file generated by openbabel 2.4.90, see http://openbabel.sf.net
data_I
_chemical_name_common ''
_cell_length_a 18.448
_cell_length_b 12.012
_cell_length_c 12.576
_cell_angle_alpha 79.494
_cell_angle_beta 74.765
_cell_angle_gamma 78.175
_space_group_name_H-M_alt 'P 1'
_space_group_name_Hall 'P 1'
loop_
    _symmetry_equiv_pos_as_xyz
    x,y,z
loop_
    _atom_site_label
    _atom_site_type_symbol
    _atom_site_fract_x
    _atom_site_fract_y
    _atom_site_fract_z
    _atom_site_occupancy
    Zn0     Zn   0.64370   0.74303   0.90286   1.000
    Zn1     Zn   0.35632   0.25693   0.09715   1.000
    Zn2     Zn   0.85632   0.25693   0.09715   1.000
    Zn3     Zn   0.00000   1.00000   0.00000   1.000
    Zn4     Zn   0.50001   1.00000   0.00000   1.000
    Zn5     Zn   0.14370   0.74303   0.90286   1.000
    C6      C    0.19321   0.89627   0.97144   1.000
    C7      C    0.69322   0.89627   0.97144   1.000
    C8      C    0.30680   0.10369   0.02856   1.000
    C9      C    0.80681   0.10369   0.02850   1.000
    O10     O    0.12675   0.90589   0.94794   1.000
    O11     O    0.62676   0.90589   0.94793   1.000
    O12     O    0.23841   0.80249   0.96781   1.000
    O13     O    0.73842   0.80249   0.96779   1.000
    O14     O    0.37327   0.09407   0.05207   1.000
    O15     O    0.87328   0.09408   0.05205   1.000
    O16     O    0.26160   0.19747   0.03221   1.000
    O17     O    0.76162   0.19747   0.03200   1.000
    Ts18    Ts   0.63913   0.70392   0.94939   1.000
    Ts19    Ts   0.67127   0.73368   0.85623   1.000
    Ts20    Ts   0.61572   0.74083   0.87968   1.000
    Ts21    Ts   0.32875   0.26628   0.14378   1.000
    Ts22    Ts   0.36089   0.29604   0.05062   1.000
    Ts23    Ts   0.38429   0.25914   0.12030   1.000
    Ts24    Ts   0.82876   0.26628   0.14378   1.000
    Ts25    Ts   0.86090   0.29604   0.05062   1.000
    Ts26    Ts   0.88430   0.25914   0.12033   1.000
    Ts27    Ts   0.99569   0.96530   0.05013   1.000
    Ts28    Ts   0.00432   0.03468   0.94984   1.000
    Ts29    Ts   0.98755   0.95989   0.97832   1.000
    Ts30    Ts   0.01246   0.04010   0.02168   1.000
    Ts31    Ts   0.49569   0.96530   0.05016   1.000
    Ts32    Ts   0.50433   0.03468   0.94984   1.000
    Ts33    Ts   0.48755   0.95989   0.97832   1.000
    Ts34    Ts   0.51246   0.04010   0.02168   1.000
    Ts35    Ts   0.13912   0.70392   0.94939   1.000
    Ts36    Ts   0.17126   0.73368   0.85623   1.000
    Ts37    Ts   0.11572   0.74083   0.87968   1.000
    Og38    Og   0.20015   0.93051   0.98033   1.000
    Og39    Og   0.70016   0.93050   0.98033   1.000
    Og40    Og   0.29987   0.06946   0.01967   1.000
    Og41    Og   0.79987   0.06945   0.01964   1.000
loop_
    _geom_bond_atom_site_label_1
    _geom_bond_atom_site_label_2
    _geom_bond_distance
    _geom_bond_site_symmetry_2
    _ccdc_geom_bond_type
    C9     O17       1.25698      .   S
    C9     O15       1.31340      .   S
    C8     O16       1.25702      .   S
    C8     O14       1.31307      .   S
    O15    Zn2       2.07534      .   S
    O14    Zn1       2.07529      .   S
    Zn0    O11       2.07530      .   S
    Zn5    O10       2.07532      .   S
    O11    C7        1.31304      .   S
    O10    C6        1.31300      .   S
    O13    C7        1.25701      .   S
    O12    C6        1.25703      .   S
    Zn0    Ts18      0.67839      .   S
    Zn0    Ts19      0.67748      .   S
    Zn0    Ts20      0.66293      .   S
    Zn1    Ts21      0.67747      .   S
    Zn1    Ts22      0.67840      .   S
    Zn1    Ts23      0.66274      .   S
    Zn2    Ts24      0.67744      .   S
    Zn2    Ts25      0.67839      .   S
    Zn2    Ts26      0.66295      .   S
    Zn3    Ts27      0.68478  1_455   S
    Zn3    Ts28      0.68495  1_564   S
    Zn3    Ts29      0.69669  1_454   S
    Zn3    Ts30      0.69668  1_565   S
    Zn4    Ts31      0.68504      .   S
    Zn4    Ts32      0.68496  1_564   S
    Zn4    Ts33      0.69672  1_554   S
    Zn4    Ts34      0.69667  1_565   S
    Zn5    Ts35      0.67839      .   S
    Zn5    Ts36      0.67746      .   S
    Zn5    Ts37      0.66293      .   S
    C6     Og38      0.49381      .   S
    C7     Og39      0.49379      .   S
    C8     Og40      0.49380      .   S
    C9     Og41      0.49369      .   S
