# CIF file generated by openbabel 2.4.90, see http://openbabel.sf.net
data_I
_chemical_name_common ''
_cell_length_a 18.448
_cell_length_b 12.012
_cell_length_c 12.576
_cell_angle_alpha 79.494
_cell_angle_beta 74.765
_cell_angle_gamma 78.175
_space_group_name_H-M_alt 'P 1'
_space_group_name_Hall 'P 1'
loop_
    _symmetry_equiv_pos_as_xyz
    x,y,z
loop_
    _atom_site_label
    _atom_site_type_symbol
    _atom_site_fract_x
    _atom_site_fract_y
    _atom_site_fract_z
    _atom_site_occupancy
    Zn0     Zn   0.64370   0.74303   0.90286   1.000
    Zn1     Zn   0.35632   0.25693   0.09715   1.000
    Zn2     Zn   0.85632   0.25693   0.09715   1.000
    Zn3     Zn   0.00000   1.00000   0.00000   1.000
    Zn4     Zn   0.50001   1.00000   0.00000   1.000
    Zn5     Zn   0.14370   0.74303   0.90286   1.000
    C6      C    0.19321   0.89627   0.97144   1.000
    C7      C    0.69322   0.89627   0.97144   1.000
    C8      C    0.30680   0.10369   0.02856   1.000
    C9      C    0.80681   0.10369   0.02850   1.000
    O10     O    0.12675   0.90589   0.94794   1.000
    O11     O    0.62676   0.90589   0.94793   1.000
    O12     O    0.23841   0.80249   0.96781   1.000
    O13     O    0.73842   0.80249   0.96779   1.000
    O14     O    0.37327   0.09407   0.05207   1.000
    O15     O    0.87328   0.09408   0.05205   1.000
    O16     O    0.26160   0.19747   0.03221   1.000
    O17     O    0.76162   0.19747   0.03200   1.000
loop_
    _geom_bond_atom_site_label_1
    _geom_bond_atom_site_label_2
    _geom_bond_distance
    _geom_bond_site_symmetry_2
    _ccdc_geom_bond_type
    C9     O17       1.25698      .   S
    C9     O15       1.31340      .   S
    C8     O16       1.25702      .   S
    C8     O14       1.31307      .   S
    O15    Zn2       2.07534      .   S
    O14    Zn1       2.07529      .   S
    Zn0    O11       2.07530      .   S
    Zn5    O10       2.07532      .   S
    O11    C7        1.31304      .   S
    O10    C6        1.31300      .   S
    O13    C7        1.25701      .   S
    O12    C6        1.25703      .   S
