# CIF file generated by openbabel 2.4.90, see http://openbabel.sf.net
data_I
_chemical_name_common ''
_cell_length_a 18.448
_cell_length_b 12.012
_cell_length_c 12.576
_cell_angle_alpha 79.494
_cell_angle_beta 74.765
_cell_angle_gamma 78.175
_space_group_name_H-M_alt 'P 1'
_space_group_name_Hall 'P 1'
loop_
    _symmetry_equiv_pos_as_xyz
    x,y,z
loop_
    _atom_site_label
    _atom_site_type_symbol
    _atom_site_fract_x
    _atom_site_fract_y
    _atom_site_fract_z
    _atom_site_occupancy
    N0      N    0.99862   0.49998   0.49951   1.000
    N1      N    0.47553   0.77389   0.87968   1.000
    N2      N    0.50001   0.49998   0.50000   1.000
    N3      N    0.97553   0.77389   0.87968   1.000
    N4      N    0.75002   0.99998   0.99998   1.000
    N5      N    0.52449   0.22609   0.12031   1.000
    N6      N    0.02448   0.22609   0.12033   1.000
    N7      N    0.25001   0.99998   0.00000   1.000
    Zr8     Zr   0.32450   0.16304   0.05250   1.000
    O9      O    0.29885   0.09460   0.03006   1.000
    O10     O    0.35683   0.27570   0.99315   1.000
    O11     O    0.39294   0.20310   0.08930   1.000
    O12     O    0.28828   0.21939   0.15430   1.000
    Zr13    Zr   0.82451   0.16304   0.05243   1.000
    O14     O    0.78829   0.21939   0.15428   1.000
    O15     O    0.85684   0.27570   0.99312   1.000
    O16     O    0.89295   0.20310   0.08927   1.000
    O17     O    0.79886   0.09460   0.03001   1.000
    Zr18    Zr   0.67552   0.83692   0.94751   1.000
    O19     O    0.70117   0.90536   0.96994   1.000
    O20     O    0.64320   0.72426   0.00685   1.000
    O21     O    0.60708   0.79686   0.91070   1.000
    O22     O    0.71174   0.78057   0.84569   1.000
    Zr23    Zr   0.00000   1.00000   0.00000   1.000
    O24     O    0.98922   0.92843   0.96179   1.000
    O25     O    0.98683   0.93500   0.08405   1.000
    O26     O    0.01284   0.06499   0.91594   1.000
    O27     O    0.01079   0.07156   0.03821   1.000
    Zr28    Zr   0.17551   0.83692   0.94751   1.000
    O29     O    0.21173   0.78057   0.84569   1.000
    O30     O    0.14271   0.72426   0.00685   1.000
    O31     O    0.10707   0.79686   0.91070   1.000
    O32     O    0.20116   0.90536   0.96995   1.000
    Zr33    Zr   0.50001   1.00000   0.00000   1.000
    O34     O    0.51080   0.07156   0.03821   1.000
    O35     O    0.48683   0.93500   0.08406   1.000
    O36     O    0.48922   0.92843   0.96179   1.000
    O37     O    0.51318   0.06499   0.91594   1.000
loop_
    _geom_bond_atom_site_label_1
    _geom_bond_atom_site_label_2
    _geom_bond_distance
    _geom_bond_site_symmetry_2
    _ccdc_geom_bond_type
    Zr8    O9        1.13736      .   S
    N7     O9        1.73262  1_565   S
    Zr8    O10       1.57243  1_554   S
    N2     O10       6.39627      .   S
    Zr8    O11       1.63624      .   S
    N5     O11       2.63227      .   S
    Zr8    O12       1.49155      .   S
    N0     O12       6.67261  1_655   S
    Zr13   O14       1.49211      .   S
    N2     O14       6.66275      .   S
    Zr13   O15       1.57232  1_554   S
    N0     O15       6.39457      .   S
    Zr13   O16       1.63649      .   S
    N6     O16       2.63230  1_455   S
    Zr13   O17       1.13724      .   S
    N4     O17       1.73246  1_566   S
    Zr18   O19       1.13732      .   S
    N4     O19       1.73254      .   S
    Zr18   O20       1.57243  1_556   S
    N2     O20       6.39626      .   S
    Zr18   O21       1.63634      .   S
    N1     O21       2.63230      .   S
    Zr18   O22       1.49172      .   S
    N0     O22       6.65238      .   S
    Zr23   O24       1.13162  1_454   S
    N3     O24       2.36732      .   S
    Zr23   O25       1.19490  1_455   S
    N0     O25       6.69516      .   S
    Zr23   O26       1.19429  1_564   S
    N0     O26       6.70664  1_655   S
    Zr23   O27       1.13160  1_565   S
    N6     O27       2.36728      .   S
    Zr28   O29       1.49174      .   S
    N2     O29       6.66250      .   S
    Zr28   O30       1.57617  1_556   S
    N0     O30       6.39550  1_655   S
    Zr28   O31       1.63627      .   S
    N3     O31       2.63215  1_655   S
    Zr28   O32       1.13736      .   S
    N7     O32       1.73261  1_554   S
    Zr33   O34       1.13155  1_565   S
    N5     O34       2.36716      .   S
    Zr33   O35       1.19500      .   S
    N2     O35       6.70118      .   S
    Zr33   O36       1.13164  1_554   S
    N1     O36       2.36736      .   S
    Zr33   O37       1.19495  1_564   S
    N2     O37       6.70095      .   S
