# CIF file generated by openbabel 2.4.90, see http://openbabel.sf.net
data_I
_chemical_name_common ''
_cell_length_a 18.448
_cell_length_b 12.012
_cell_length_c 12.576
_cell_angle_alpha 79.494
_cell_angle_beta 74.765
_cell_angle_gamma 78.175
_space_group_name_H-M_alt 'P 1'
_space_group_name_Hall 'P 1'
loop_
    _symmetry_equiv_pos_as_xyz
    x,y,z
loop_
    _atom_site_label
    _atom_site_type_symbol
    _atom_site_fract_x
    _atom_site_fract_y
    _atom_site_fract_z
    _atom_site_occupancy
    Zr0     Zr   0.14370   0.74303   0.90286   1.000
    Zr1     Zr   0.64370   0.74303   0.90286   1.000
    Zr2     Zr   0.35632   0.25693   0.09715   1.000
    Zr3     Zr   0.85632   0.25693   0.09715   1.000
    Zr4     Zr   0.00000   1.00000   0.00000   1.000
    Zr5     Zr   0.50001   1.00000   0.00000   1.000
    Zr6     Zr   0.19321   0.89627   0.97144   1.000
    Zr7     Zr   0.69322   0.89627   0.97144   1.000
    Zr8     Zr   0.30680   0.10369   0.02856   1.000
    Zr9     Zr   0.80681   0.10369   0.02850   1.000
    Zr10    Zr   0.12675   0.90589   0.94794   1.000
    Zr11    Zr   0.62676   0.90589   0.94793   1.000
    Zr12    Zr   0.23841   0.80249   0.96781   1.000
    Zr13    Zr   0.73842   0.80249   0.96779   1.000
    Zr14    Zr   0.37327   0.09407   0.05207   1.000
    Zr15    Zr   0.87328   0.09408   0.05205   1.000
    Zr16    Zr   0.26160   0.19747   0.03221   1.000
    Zr17    Zr   0.76162   0.19747   0.03200   1.000
    O18     O    0.78422   0.15058   0.03025   1.000
    O19     O    0.84005   0.09888   0.04028   1.000
    O20     O    0.28420   0.15058   0.03039   1.000
    O21     O    0.34004   0.09888   0.04032   1.000
    O22     O    0.86480   0.17550   0.07460   1.000
    O23     O    0.36479   0.17550   0.07461   1.000
    O24     O    0.63523   0.82446   0.92540   1.000
    O25     O    0.13522   0.82446   0.92540   1.000
    O26     O    0.65999   0.90108   0.95969   1.000
    O27     O    0.15998   0.90108   0.95969   1.000
    O28     O    0.71582   0.84938   0.96962   1.000
    O29     O    0.21581   0.84938   0.96963   1.000
    N30     N    0.99862   0.49998   0.49951   1.000
    O31     O    0.10991   0.61160   0.06618   1.000
    O32     O    0.97366   0.87000   0.16811   1.000
    O33     O    0.25207   0.27574   0.25610   1.000
    O34     O    0.74796   0.72422   0.74387   1.000
    O35     O    0.02567   0.12997   0.83187   1.000
    O36     O    0.88916   0.38836   0.93381   1.000
    N37     N    0.47553   0.77389   0.87968   1.000
    O38     O    0.53863   0.75681   0.87389   1.000
    O39     O    0.47843   0.85686   0.92358   1.000
    N40     N    0.50001   0.49998   0.50000   1.000
    O41     O    0.61087   0.61160   0.06620   1.000
    O42     O    0.47366   0.87000   0.16812   1.000
    O43     O    0.75208   0.27574   0.25613   1.000
    O44     O    0.24795   0.72422   0.74387   1.000
    O45     O    0.52636   0.12998   0.83187   1.000
    O46     O    0.38916   0.38836   0.93381   1.000
    N47     N    0.97553   0.77389   0.87968   1.000
    O48     O    0.97843   0.85686   0.92358   1.000
    O49     O    0.03863   0.75681   0.87389   1.000
    N50     N    0.75002   0.99998   0.99998   1.000
    O51     O    0.77321   0.02616   0.00759   1.000
    O52     O    0.72682   0.97380   0.99238   1.000
    N53     N    0.52449   0.22609   0.12031   1.000
    O54     O    0.46138   0.24316   0.12609   1.000
    O55     O    0.52159   0.14312   0.07642   1.000
    N56     N    0.02448   0.22609   0.12033   1.000
    O57     O    0.02158   0.14312   0.07643   1.000
    O58     O    0.96138   0.24316   0.12612   1.000
    N59     N    0.25001   0.99998   0.00000   1.000
    O60     O    0.22681   0.97380   0.99239   1.000
    O61     O    0.27320   0.02616   0.00762   1.000
loop_
    _geom_bond_atom_site_label_1
    _geom_bond_atom_site_label_2
    _geom_bond_distance
    _geom_bond_site_symmetry_2
    _ccdc_geom_bond_type
    Zr9    O18       0.62849      .   S
    Zr17   O18       0.62849      .   S
    Zr9    O19       0.65670      .   S
    Zr15   O19       0.65670      .   S
    Zr8    O20       0.62851      .   S
    Zr16   O20       0.62851      .   S
    Zr8    O21       0.65653      .   S
    Zr14   O21       0.65653      .   S
    Zr15   O22       1.03767      .   S
    Zr3    O22       1.03767      .   S
    Zr14   O23       1.03765      .   S
    Zr2    O23       1.03765      .   S
    Zr1    O24       1.03765      .   S
    Zr11   O24       1.03765      .   S
    Zr0    O25       1.03766      .   S
    Zr10   O25       1.03766      .   S
    Zr11   O26       0.65652      .   S
    Zr7    O26       0.65652      .   S
    Zr10   O27       0.65650      .   S
    Zr6    O27       0.65650      .   S
    Zr13   O28       0.62850      .   S
    Zr7    O28       0.62850      .   S
    Zr12   O29       0.62852      .   S
    Zr6    O29       0.62852      .   S
    N30    O31       5.31912  1_655   S
    Zr0    O31       2.37640  1_556   S
    N30    O32       5.54536      .   S
    Zr4    O32       2.38979  1_455   S
    N30    O33       5.36744  1_655   S
    Zr2    O33       2.38991      .   S
    N30    O34       5.34122      .   S
    Zr1    O34       2.39029      .   S
    N30    O35       5.55759  1_655   S
    Zr4    O35       2.38858  1_564   S
    N30    O36       5.32438      .   S
    Zr3    O36       2.37369  1_554   S
    N37    O38       1.12497      .   S
    Zr1    O38       2.03342      .   S
    N37    O39       1.24061      .   S
    Zr5    O39       2.26329  1_554   S
    N40    O41       5.32311      .   S
    Zr1    O41       2.37360  1_556   S
    N40    O42       5.55218      .   S
    Zr5    O42       2.38999      .   S
    N40    O43       5.35429      .   S
    Zr3    O43       2.39014      .   S
    N40    O44       5.35430      .   S
    Zr0    O44       2.39021      .   S
    N40    O45       5.55202      .   S
    Zr5    O45       2.38990  1_564   S
    N40    O46       5.32313      .   S
    Zr2    O46       2.37367  1_554   S
    N47    O48       1.24059      .   S
    Zr4    O48       2.26323  1_454   S
    N47    O49       1.12490  1_655   S
    Zr0    O49       2.03335      .   S
    N50    O51       0.61545  1_566   S
    Zr9    O51       1.31619      .   S
    N50    O52       0.61545      .   S
    Zr7    O52       1.31635      .   S
    N53    O54       1.12500      .   S
    Zr2    O54       2.03330      .   S
    N53    O55       1.24050      .   S
    Zr5    O55       2.26310  1_565   S
    N56    O57       1.24057      .   S
    Zr4    O57       2.26319  1_565   S
    N56    O58       1.12490  1_455   S
    Zr3    O58       2.03336      .   S
    N59    O60       0.61549  1_554   S
    Zr6    O60       1.31642      .   S
    N59    O61       0.61549  1_565   S
    Zr8    O61       1.31640      .   S
