# CIF file generated by openbabel 2.4.90, see http://openbabel.sf.net
data_I
_chemical_name_common ''
_cell_length_a 18.448
_cell_length_b 12.012
_cell_length_c 12.576
_cell_angle_alpha 79.494
_cell_angle_beta 74.765
_cell_angle_gamma 78.175
_space_group_name_H-M_alt 'P 1'
_space_group_name_Hall 'P 1'
loop_
    _symmetry_equiv_pos_as_xyz
    x,y,z
loop_
    _atom_site_label
    _atom_site_type_symbol
    _atom_site_fract_x
    _atom_site_fract_y
    _atom_site_fract_z
    _atom_site_occupancy
    C0      C    0.14370   0.74303   0.90286   1.000
    C1      C    0.64370   0.74303   0.90286   1.000
    C2      C    0.35632   0.25693   0.09715   1.000
    C3      C    0.85632   0.25693   0.09715   1.000
    C4      C    0.00000   1.00000   0.00000   1.000
    C5      C    0.50001   1.00000   0.00000   1.000
    C6      C    0.03958   0.36753   0.26099   1.000
    C7      C    0.53958   0.36753   0.26099   1.000
    C8      C    0.46548   0.47961   0.24389   1.000
    C9      C    0.96548   0.47961   0.24390   1.000
    C10     C    0.02151   0.57951   0.04893   1.000
    C11     C    0.52152   0.57951   0.04893   1.000
    C12     C    0.22408   0.63288   0.11169   1.000
    C13     C    0.72409   0.63288   0.11169   1.000
    C14     C    0.40348   0.61937   0.29440   1.000
    C15     C    0.90349   0.61937   0.29440   1.000
    C16     C    0.36279   0.70096   0.40399   1.000
    C17     C    0.86279   0.70096   0.40399   1.000
    C18     C    0.43379   0.76370   0.12083   1.000
    C19     C    0.93380   0.76369   0.12083   1.000
    C20     C    0.03186   0.97964   0.25155   1.000
    C21     C    0.53187   0.97962   0.25154   1.000
    C22     C    0.06229   0.25191   0.37263   1.000
    C23     C    0.56230   0.25191   0.37263   1.000
    C24     C    0.09049   0.21770   0.49831   1.000
    C25     C    0.59050   0.21770   0.49831   1.000
    C26     C    0.17116   0.24867   0.20342   1.000
    C27     C    0.67117   0.24867   0.20340   1.000
    C28     C    0.33628   0.32535   0.34382   1.000
    C29     C    0.83629   0.32535   0.34382   1.000
    C30     C    0.16917   0.07296   0.01312   1.000
    C31     C    0.66919   0.07297   0.01311   1.000
    C32     C    0.46044   0.63243   0.73902   1.000
    C33     C    0.96045   0.63243   0.73902   1.000
    C34     C    0.03454   0.52035   0.75611   1.000
    C35     C    0.53454   0.52035   0.75612   1.000
    C36     C    0.47850   0.42046   0.95108   1.000
    C37     C    0.97852   0.42046   0.95107   1.000
    C38     C    0.27594   0.36709   0.88831   1.000
    C39     C    0.77595   0.36708   0.88830   1.000
    C40     C    0.09653   0.38060   0.70561   1.000
    C41     C    0.59654   0.38060   0.70561   1.000
    C42     C    0.13723   0.29901   0.59601   1.000
    C43     C    0.63724   0.29901   0.59601   1.000
    C44     C    0.06622   0.23627   0.87918   1.000
    C45     C    0.56624   0.23627   0.87910   1.000
    C46     C    0.46815   0.02034   0.74846   1.000
    C47     C    0.96817   0.02033   0.74846   1.000
    C48     C    0.43773   0.74806   0.62738   1.000
    C49     C    0.93774   0.74806   0.62738   1.000
    C50     C    0.40952   0.78226   0.50170   1.000
    C51     C    0.90953   0.78227   0.50170   1.000
    C52     C    0.32885   0.75130   0.79658   1.000
    C53     C    0.82887   0.75130   0.79650   1.000
    C54     C    0.16373   0.67462   0.65619   1.000
    C55     C    0.66374   0.67462   0.65619   1.000
    C56     C    0.33084   0.92700   0.98689   1.000
    C57     C    0.83085   0.92700   0.98680   1.000
    C58     C    0.50832   0.47963   0.39006   1.000
    C59     C    0.00000   0.47963   0.39006   1.000
    C60     C    0.46328   0.58154   0.42701   1.000
    C61     C    0.96329   0.58154   0.42701   1.000
    C62     C    0.04432   0.39739   0.46350   1.000
    C63     C    0.54433   0.39740   0.46349   1.000
    C64     C    0.51893   0.45803   0.27155   1.000
    C65     C    0.00000   0.45803   0.27155   1.000
    C66     C    0.06831   0.57540   0.08807   1.000
    C67     C    0.56832   0.57540   0.08807   1.000
    C68     C    0.17083   0.60233   0.12302   1.000
    C69     C    0.67083   0.60233   0.12302   1.000
    C70     C    0.41748   0.66441   0.35277   1.000
    C71     C    0.91749   0.66441   0.35277   1.000
    C72     C    0.45501   0.80116   0.17690   1.000
    C73     C    0.95502   0.80116   0.17692   1.000
    C74     C    0.00522   0.90897   0.24576   1.000
    C75     C    0.50522   0.90896   0.24576   1.000
    C76     C    0.08901   0.28426   0.42648   1.000
    C77     C    0.58902   0.28427   0.42648   1.000
    C78     C    0.20032   0.27238   0.25800   1.000
    C79     C    0.70033   0.27238   0.25870   1.000
    C80     C    0.28224   0.31198   0.33378   1.000
    C81     C    0.78225   0.31198   0.33378   1.000
    C82     C    0.19321   0.89627   0.97144   1.000
    C83     C    0.69322   0.89627   0.97144   1.000
    C84     C    0.21403   0.99898   0.99810   1.000
    C85     C    0.71403   0.99897   0.99810   1.000
    C86     C    0.99170   0.52033   0.60995   1.000
    C87     C    0.49170   0.52033   0.60995   1.000
    C88     C    0.03674   0.41842   0.57000   1.000
    C89     C    0.53674   0.41843   0.57300   1.000
    C90     C    0.45570   0.60257   0.53651   1.000
    C91     C    0.95571   0.60258   0.53651   1.000
    C92     C    0.98109   0.54193   0.72846   1.000
    C93     C    0.48109   0.54193   0.72846   1.000
    C94     C    0.43170   0.42456   0.91193   1.000
    C95     C    0.93171   0.42456   0.91193   1.000
    C96     C    0.32919   0.39763   0.87698   1.000
    C97     C    0.82920   0.39763   0.87690   1.000
    C98     C    0.08254   0.33556   0.64720   1.000
    C99     C    0.58254   0.33556   0.64723   1.000
    C100    C    0.04501   0.19881   0.82308   1.000
    C101    C    0.54502   0.19881   0.82308   1.000
    C102    C    0.49480   0.09101   0.75424   1.000
    C103    C    0.99481   0.09100   0.75424   1.000
    C104    C    0.41101   0.71570   0.57353   1.000
    C105    C    0.91102   0.71570   0.57353   1.000
    C106    C    0.29969   0.72759   0.74131   1.000
    C107    C    0.79971   0.72759   0.74131   1.000
    C108    C    0.21777   0.68799   0.66620   1.000
    C109    C    0.71778   0.68799   0.66623   1.000
    C110    C    0.30680   0.10369   0.02856   1.000
    C111    C    0.80681   0.10369   0.02850   1.000
    C112    C    0.28599   0.00099   0.00190   1.000
    C113    C    0.78599   0.00098   0.00191   1.000
    C114    C    0.47394   0.77336   0.88046   1.000
    C115    C    0.97395   0.77336   0.88046   1.000
    C116    C    0.02607   0.22661   0.11955   1.000
    C117    C    0.52608   0.22661   0.11954   1.000
    C118    C    0.12997   0.62571   0.04244   1.000
    C119    C    0.62998   0.62571   0.04244   1.000
    C120    C    0.07230   0.52613   0.19157   1.000
    C121    C    0.57231   0.52613   0.19157   1.000
    C122    C    0.13788   0.54126   0.21500   1.000
    C123    C    0.63789   0.54126   0.21530   1.000
    C124    C    0.48705   0.89591   0.15048   1.000
    C125    C    0.98706   0.89591   0.15040   1.000
    C126    C    0.45484   0.75898   0.28391   1.000
    C127    C    0.95485   0.75899   0.28391   1.000
    C128    C    0.98636   0.82733   0.32958   1.000
    C129    C    0.48637   0.82733   0.32950   1.000
    C130    C    0.27361   0.28497   0.23703   1.000
    C131    C    0.77363   0.28497   0.23703   1.000
    C132    C    0.16746   0.29124   0.36400   1.000
    C133    C    0.66747   0.29125   0.36404   1.000
    C134    C    0.21883   0.31686   0.41360   1.000
    C135    C    0.71885   0.31686   0.41360   1.000
    C136    C    0.37005   0.37426   0.95757   1.000
    C137    C    0.87006   0.37426   0.95757   1.000
    C138    C    0.42772   0.47384   0.80840   1.000
    C139    C    0.92772   0.47384   0.80844   1.000
    C140    C    0.36213   0.45870   0.78471   1.000
    C141    C    0.86214   0.45870   0.78471   1.000
    C142    C    0.01297   0.10405   0.84953   1.000
    C143    C    0.51297   0.10406   0.84953   1.000
    C144    C    0.04518   0.24098   0.71610   1.000
    C145    C    0.54518   0.24098   0.71610   1.000
    C146    C    0.51366   0.17264   0.67043   1.000
    C147    C    0.00000   0.17263   0.67043   1.000
    C148    C    0.22640   0.71499   0.76298   1.000
    C149    C    0.72641   0.71499   0.76298   1.000
    C150    C    0.33255   0.70872   0.63597   1.000
    C151    C    0.83256   0.70872   0.63597   1.000
    C152    C    0.28118   0.68310   0.58641   1.000
    C153    C    0.78119   0.68311   0.58641   1.000
    C154    C    0.05977   0.73643   0.83333   1.000
    C155    C    0.55977   0.73643   0.83333   1.000
    C156    C    0.46264   0.87968   0.93497   1.000
    C157    C    0.96264   0.87967   0.93497   1.000
    C158    C    0.44423   0.67909   0.96455   1.000
    C159    C    0.94423   0.67909   0.96455   1.000
    C160    C    0.43708   0.80088   0.78509   1.000
    C161    C    0.93708   0.80088   0.78509   1.000
    C162    C    0.12675   0.90589   0.94794   1.000
    C163    C    0.62676   0.90589   0.94793   1.000
    C164    C    0.23841   0.80249   0.96781   1.000
    C165    C    0.73842   0.80249   0.96779   1.000
    C166    C    0.44025   0.26355   0.16660   1.000
    C167    C    0.94025   0.26355   0.16668   1.000
    C168    C    0.03737   0.12030   0.06504   1.000
    C169    C    0.53738   0.12030   0.06504   1.000
    C170    C    0.05579   0.32088   0.03546   1.000
    C171    C    0.55579   0.32088   0.03546   1.000
    C172    C    0.06294   0.19909   0.21492   1.000
    C173    C    0.56294   0.19909   0.21492   1.000
    C174    C    0.37327   0.09407   0.05207   1.000
    C175    C    0.87328   0.09408   0.05205   1.000
    C176    C    0.26160   0.19747   0.03221   1.000
    C177    C    0.76162   0.19747   0.03200   1.000
    O178    O    0.01869   0.06015   0.03252   1.000
    O179    O    0.99353   0.94796   0.07520   1.000
    O180    O    0.00648   0.05203   0.92477   1.000
    O181    O    0.98132   0.93983   0.96749   1.000
    O182    O    0.29640   0.05234   0.01523   1.000
    O183    O    0.30841   0.96399   0.99440   1.000
    O184    O    0.25001   0.99998   0.00000   1.000
    O185    O    0.79640   0.05234   0.01521   1.000
    O186    O    0.80842   0.96399   0.99436   1.000
    O187    O    0.75001   0.99998   0.00001   1.000
    O188    O    0.69161   0.03597   0.00561   1.000
    O189    O    0.19160   0.03597   0.00561   1.000
    O190    O    0.78422   0.15058   0.03025   1.000
    O191    O    0.84005   0.09888   0.04028   1.000
    O192    O    0.28420   0.15058   0.03039   1.000
    O193    O    0.34004   0.09888   0.04032   1.000
    O194    O    0.04093   0.27375   0.07751   1.000
    O195    O    0.54093   0.27374   0.07750   1.000
    O196    O    0.09914   0.60055   0.06526   1.000
    O197    O    0.15040   0.61402   0.08273   1.000
    O198    O    0.13683   0.68437   0.97265   1.000
    O199    O    0.59915   0.60055   0.06526   1.000
    O200    O    0.65041   0.61402   0.08273   1.000
    O201    O    0.63684   0.68437   0.97265   1.000
    O202    O    0.04491   0.57745   0.06850   1.000
    O203    O    0.54492   0.57745   0.06850   1.000
    O204    O    0.86480   0.17550   0.07460   1.000
    O205    O    0.36479   0.17550   0.07461   1.000
    O206    O    0.03172   0.17346   0.09230   1.000
    O207    O    0.53173   0.17345   0.09229   1.000
    O208    O    0.51869   0.06015   0.03252   1.000
    O209    O    0.07031   0.55076   0.13982   1.000
    O210    O    0.57032   0.55076   0.13982   1.000
    O211    O    0.39828   0.26024   0.13188   1.000
    O212    O    0.31496   0.27095   0.16709   1.000
    O213    O    0.36318   0.31559   0.02736   1.000
    O214    O    0.89829   0.26024   0.13192   1.000
    O215    O    0.81497   0.27095   0.16709   1.000
    O216    O    0.86319   0.31559   0.02736   1.000
    O217    O    0.19745   0.61761   0.11736   1.000
    O218    O    0.69746   0.61760   0.11736   1.000
    O219    O    0.48316   0.24508   0.14307   1.000
    O220    O    0.54451   0.21285   0.16723   1.000
    O221    O    0.98316   0.24508   0.14312   1.000
    O222    O    0.04450   0.21285   0.16724   1.000
    O223    O    0.94441   0.78243   0.14888   1.000
    O224    O    0.44440   0.78243   0.14887   1.000
    O225    O    0.65436   0.57180   0.16916   1.000
    O226    O    0.15435   0.57180   0.16901   1.000
    O227    O    0.97104   0.84854   0.16366   1.000
    O228    O    0.99614   0.90244   0.19808   1.000
    O229    O    0.47103   0.84853   0.16369   1.000
    O230    O    0.49614   0.90243   0.19812   1.000
    O231    O    0.49353   0.94795   0.07524   1.000
    O232    O    0.45493   0.78007   0.23040   1.000
    O233    O    0.95493   0.78007   0.23042   1.000
    O234    O    0.10509   0.53370   0.20329   1.000
    O235    O    0.03615   0.49208   0.23156   1.000
    O236    O    0.60510   0.53370   0.20344   1.000
    O237    O    0.54562   0.49208   0.23156   1.000
    O238    O    0.68575   0.26052   0.23105   1.000
    O239    O    0.18574   0.26052   0.23071   1.000
    O240    O    0.73698   0.27868   0.24787   1.000
    O241    O    0.77794   0.29847   0.28541   1.000
    O242    O    0.23697   0.27868   0.24752   1.000
    O243    O    0.27793   0.29848   0.28541   1.000
    O244    O    0.49221   0.46882   0.25772   1.000
    O245    O    0.98274   0.46882   0.25773   1.000
    O246    O    0.51855   0.94429   0.24865   1.000
    O247    O    0.49580   0.86814   0.28763   1.000
    O248    O    0.01854   0.94430   0.24866   1.000
    O249    O    0.99579   0.86815   0.28767   1.000
    O250    O    0.18389   0.28181   0.31100   1.000
    O251    O    0.68390   0.28181   0.31137   1.000
    O252    O    0.01979   0.41278   0.26627   1.000
    O253    O    0.52926   0.41278   0.26627   1.000
    O254    O    0.00000   0.46883   0.33081   1.000
    O255    O    0.51363   0.46883   0.33081   1.000
    O256    O    0.97061   0.79316   0.30674   1.000
    O257    O    0.93617   0.71170   0.31834   1.000
    O258    O    0.47060   0.79316   0.30671   1.000
    O259    O    0.43616   0.71170   0.31834   1.000
    O260    O    0.91049   0.64189   0.32359   1.000
    O261    O    0.41048   0.64189   0.32359   1.000
    O262    O    0.80927   0.31866   0.33880   1.000
    O263    O    0.75055   0.31442   0.37369   1.000
    O264    O    0.30926   0.31866   0.33880   1.000
    O265    O    0.25054   0.31442   0.37369   1.000
    O266    O    0.39013   0.68268   0.37838   1.000
    O267    O    0.44038   0.62297   0.38989   1.000
    O268    O    0.89014   0.68268   0.37838   1.000
    O269    O    0.94039   0.62298   0.38989   1.000
    O270    O    0.19315   0.30405   0.38880   1.000
    O271    O    0.12823   0.28775   0.39524   1.000
    O272    O    0.69316   0.30405   0.38882   1.000
    O273    O    0.62824   0.28776   0.39526   1.000
    O274    O    0.57566   0.26809   0.39956   1.000
    O275    O    0.07565   0.26809   0.39956   1.000
    O276    O    0.98164   0.53059   0.40854   1.000
    O277    O    0.02216   0.43851   0.42678   1.000
    O278    O    0.48580   0.53059   0.40854   1.000
    O279    O    0.52632   0.43851   0.42678   1.000
    O280    O    0.56667   0.34083   0.44499   1.000
    O281    O    0.58976   0.25099   0.46240   1.000
    O282    O    0.06666   0.34083   0.44499   1.000
    O283    O    0.08975   0.25098   0.46240   1.000
    O284    O    0.45949   0.59206   0.48176   1.000
    O285    O    0.95950   0.59206   0.48176   1.000
    O286    O    0.54053   0.40791   0.51825   1.000
    O287    O    0.04053   0.40791   0.51675   1.000
    O288    O    0.91028   0.74898   0.53762   1.000
    O289    O    0.41027   0.74898   0.53762   1.000
    O290    O    0.43335   0.65913   0.55502   1.000
    O291    O    0.47370   0.56145   0.57323   1.000
    O292    O    0.93336   0.65914   0.55502   1.000
    O293    O    0.97370   0.56146   0.57323   1.000
    O294    O    0.01422   0.46938   0.58998   1.000
    O295    O    0.05964   0.37699   0.60860   1.000
    O296    O    0.51422   0.46938   0.59147   1.000
    O297    O    0.55964   0.37699   0.61012   1.000
    O298    O    0.42437   0.73188   0.60046   1.000
    O299    O    0.37178   0.71221   0.60475   1.000
    O300    O    0.92438   0.73188   0.60046   1.000
    O301    O    0.87179   0.71221   0.60475   1.000
    O302    O    0.80688   0.69591   0.61119   1.000
    O303    O    0.74949   0.68555   0.62632   1.000
    O304    O    0.30686   0.69591   0.61119   1.000
    O305    O    0.24948   0.68555   0.62631   1.000
    O306    O    0.10988   0.31728   0.62161   1.000
    O307    O    0.60989   0.31728   0.62162   1.000
    O308    O    0.98639   0.53113   0.66921   1.000
    O309    O    0.48640   0.53113   0.66921   1.000
    O310    O    0.31612   0.71815   0.68864   1.000
    O311    O    0.81613   0.71815   0.68864   1.000
    O312    O    0.08953   0.35808   0.67641   1.000
    O313    O    0.06386   0.28827   0.68165   1.000
    O314    O    0.58954   0.35808   0.67642   1.000
    O315    O    0.56386   0.28827   0.68166   1.000
    O316    O    0.19075   0.68130   0.66120   1.000
    O317    O    0.69076   0.68130   0.66121   1.000
    O318    O    0.22208   0.70149   0.71459   1.000
    O319    O    0.72210   0.70149   0.71461   1.000
    O320    O    0.02259   0.20681   0.69326   1.000
    O321    O    0.99740   0.13182   0.71234   1.000
    O322    O    0.52942   0.20681   0.69326   1.000
    O323    O    0.50423   0.13182   0.71234   1.000
    O324    O    0.54510   0.21990   0.76959   1.000
    O325    O    0.04509   0.21990   0.76959   1.000
    O326    O    0.97077   0.58718   0.73374   1.000
    O327    O    0.00782   0.53114   0.74228   1.000
    O328    O    0.95441   0.50789   0.76845   1.000
    O329    O    0.47077   0.58718   0.73374   1.000
    O330    O    0.50782   0.53114   0.74229   1.000
    O331    O    0.45440   0.50789   0.76843   1.000
    O332    O    0.76306   0.72129   0.75215   1.000
    O333    O    0.81429   0.73944   0.76890   1.000
    O334    O    0.26305   0.72129   0.75215   1.000
    O335    O    0.31427   0.73944   0.76895   1.000
    O336    O    0.98149   0.05567   0.75135   1.000
    O337    O    0.48148   0.05568   0.75135   1.000
    O338    O    0.50389   0.09753   0.80189   1.000
    O339    O    0.00389   0.09753   0.80189   1.000
    O340    O    0.18505   0.72901   0.83292   1.000
    O341    O    0.68505   0.72901   0.83292   1.000
    O342    O    0.39493   0.46627   0.79656   1.000
    O343    O    0.34566   0.42817   0.83085   1.000
    O344    O    0.89493   0.46627   0.79658   1.000
    O345    O    0.84567   0.42817   0.83081   1.000
    O346    O    0.95551   0.78712   0.83278   1.000
    O347    O    0.45551   0.78712   0.83278   1.000
    O348    O    0.42971   0.44920   0.86017   1.000
    O349    O    0.92972   0.44920   0.86019   1.000
    O350    O    0.52899   0.15143   0.83631   1.000
    O351    O    0.55563   0.21754   0.85109   1.000
    O352    O    0.02899   0.15143   0.83631   1.000
    O353    O    0.05561   0.21754   0.85113   1.000
    O354    O    0.01686   0.75489   0.85690   1.000
    O355    O    0.10173   0.73973   0.86810   1.000
    O356    O    0.51686   0.75489   0.85690   1.000
    O357    O    0.60174   0.73973   0.86810   1.000
    O358    O    0.50649   0.05203   0.92477   1.000
    O359    O    0.80257   0.38236   0.88260   1.000
    O360    O    0.84963   0.38594   0.91724   1.000
    O361    O    0.30256   0.38236   0.88265   1.000
    O362    O    0.34962   0.38594   0.91728   1.000
    O363    O    0.96830   0.82652   0.90772   1.000
    O364    O    0.95909   0.72622   0.92251   1.000
    O365    O    0.46829   0.82652   0.90772   1.000
    O366    O    0.45909   0.72622   0.92251   1.000
    O367    O    0.63523   0.82446   0.92540   1.000
    O368    O    0.13522   0.82446   0.92540   1.000
    O369    O    0.95512   0.42251   0.93150   1.000
    O370    O    0.90088   0.39941   0.93475   1.000
    O371    O    0.45510   0.42251   0.93151   1.000
    O372    O    0.40087   0.39941   0.93475   1.000
    O373    O    0.48132   0.93984   0.96749   1.000
    O374    O    0.65999   0.90108   0.95969   1.000
    O375    O    0.15998   0.90108   0.95969   1.000
    O376    O    0.71582   0.84938   0.96962   1.000
    O377    O    0.21581   0.84938   0.96963   1.000
    O378    O    0.20362   0.94762   0.98477   1.000
    O379    O    0.70363   0.94762   0.98477   1.000
loop_
    _geom_bond_atom_site_label_1
    _geom_bond_atom_site_label_2
    _geom_bond_distance
    _geom_bond_site_symmetry_2
    _ccdc_geom_bond_type
    C4     O178      1.04501  1_565   S
    C168   O178      1.04501      .   S
    C4     O179      1.02716  1_455   S
    C125   O179      1.02716      .   S
    C4     O180      1.02743  1_564   S
    C142   O180      1.02743      .   S
    C4     O181      1.04503  1_454   S
    C157   O181      1.04503      .   S
    C112   O182      0.74070      .   S
    C110   O182      0.74070      .   S
    C112   O183      0.54496  1_544   S
    C56    O183      0.54496      .   S
    C112   O184      0.67307  1_545   S
    C84    O184      0.67307  1_556   S
    C113   O185      0.74053      .   S
    C111   O185      0.74053      .   S
    C113   O186      0.54502  1_544   S
    C57    O186      0.54502      .   S
    C113   O187      0.67309  1_545   S
    C85    O187      0.67309  1_556   S
    C31    O188      0.54497      .   S
    C85    O188      0.54497  1_566   S
    C30    O189      0.54496      .   S
    C84    O189      0.54496  1_566   S
    C111   O190      0.62849      .   S
    C177   O190      0.62849      .   S
    C111   O191      0.65670      .   S
    C175   O191      0.65670      .   S
    C110   O192      0.62851      .   S
    C176   O192      0.62851      .   S
    C110   O193      0.65653      .   S
    C174   O193      0.65653      .   S
    C170   O194      0.74400      .   S
    C116   O194      0.74400      .   S
    C171   O195      0.74396      .   S
    C117   O195      0.74396      .   S
    C118   O196      0.67091      .   S
    C66    O196      0.67091      .   S
    C118   O197      0.68645      .   S
    C68    O197      0.68645      .   S
    C118   O198      1.01758  1_554   S
    C0     O198      1.01758      .   S
    C119   O199      0.67090      .   S
    C67    O199      0.67090      .   S
    C119   O200      0.68644      .   S
    C69    O200      0.68644      .   S
    C119   O201      1.01758  1_554   S
    C1     O201      1.01758      .   S
    C10    O202      0.54482      .   S
    C66    O202      0.54482      .   S
    C11    O203      0.54481      .   S
    C67    O203      0.54481      .   S
    C175   O204      1.03767      .   S
    C3     O204      1.03767      .   S
    C174   O205      1.03765      .   S
    C2     O205      1.03765      .   S
    C168   O206      0.75485      .   S
    C116   O206      0.75485      .   S
    C169   O207      0.75483      .   S
    C117   O207      0.75483      .   S
    C169   O208      1.04501      .   S
    C5     O208      1.04501  1_565   S
    C66    O209      0.67109      .   S
    C120   O209      0.67109      .   S
    C67    O210      0.67109      .   S
    C121   O210      0.67109      .   S
    C2     O211      0.99411      .   S
    C166   O211      0.99411      .   S
    C2     O212      1.01620      .   S
    C130   O212      1.01620      .   S
    C2     O213      1.01760      .   S
    C136   O213      1.01760  1_556   S
    C3     O214      0.99443      .   S
    C167   O214      0.99443      .   S
    C3     O215      1.01616      .   S
    C131   O215      1.01616      .   S
    C3     O216      1.01759      .   S
    C137   O216      1.01759  1_556   S
    C12    O217      0.54204      .   S
    C68    O217      0.54204      .   S
    C13    O218      0.54203      .   S
    C69    O218      0.54203      .   S
    C117   O219      0.76966      .   S
    C166   O219      0.76966      .   S
    C117   O220      0.74206      .   S
    C173   O220      0.74206      .   S
    C116   O221      0.76965  1_455   S
    C167   O221      0.76965      .   S
    C116   O222      0.74202      .   S
    C172   O222      0.74202      .   S
    C19    O223      0.54459      .   S
    C73    O223      0.54459      .   S
    C18    O224      0.54450      .   S
    C72    O224      0.54450      .   S
    C69    O225      0.66254      .   S
    C123   O225      0.66254      .   S
    C68    O226      0.66130      .   S
    C122   O226      0.66130      .   S
    C125   O227      0.66892      .   S
    C73    O227      0.66892      .   S
    C125   O228      0.68488      .   S
    C74    O228      0.68488  1_455   S
    C124   O229      0.66893      .   S
    C72    O229      0.66893      .   S
    C124   O230      0.68446      .   S
    C75    O230      0.68446      .   S
    C124   O231      1.02757      .   S
    C5     O231      1.02757      .   S
    C72    O232      0.67407      .   S
    C126   O232      0.67407      .   S
    C73    O233      0.67396      .   S
    C127   O233      0.67396      .   S
    C120   O234      0.68570      .   S
    C122   O234      0.68570      .   S
    C120   O235      0.85173      .   S
    C65    O235      0.85173      .   S
    C121   O236      0.68658      .   S
    C123   O236      0.68658      .   S
    C121   O237      0.73483      .   S
    C64    O237      0.73483      .   S
    C27    O238      0.54448      .   S
    C79    O238      0.54448      .   S
    C26    O239      0.54080      .   S
    C78    O239      0.54080      .   S
    C131   O240      0.67095      .   S
    C79    O240      0.67095      .   S
    C131   O241      0.68517      .   S
    C81    O241      0.68517      .   S
    C130   O242      0.67132      .   S
    C78    O242      0.67132      .   S
    C130   O243      0.68516      .   S
    C80    O243      0.68516      .   S
    C8     O244      0.54841      .   S
    C64    O244      0.54841      .   S
    C9     O245      0.39032      .   S
    C65    O245      0.39032  1_455   S
    C75    O246      0.54310      .   S
    C21    O246      0.54310      .   S
    C75    O247      0.66373      .   S
    C129   O247      0.66373      .   S
    C74    O248      0.54311      .   S
    C20    O248      0.54311      .   S
    C74    O249      0.66403  1_455   S
    C128   O249      0.66403      .   S
    C78    O250      0.67546      .   S
    C132   O250      0.67546      .   S
    C79    O251      0.67174      .   S
    C133   O251      0.67174      .   S
    C6     O252      0.59348      .   S
    C65    O252      0.59348      .   S
    C7     O253      0.54792      .   S
    C64    O253      0.54792      .   S
    C65    O254      0.77935      .   S
    C59    O254      0.77935      .   S
    C64    O255      0.75726      .   S
    C58    O255      0.75726      .   S
    C127   O256      0.68647      .   S
    C128   O256      0.68647      .   S
    C127   O257      0.73552      .   S
    C71    O257      0.73552      .   S
    C126   O258      0.68621      .   S
    C129   O258      0.68621      .   S
    C126   O259      0.73553      .   S
    C70    O259      0.73553      .   S
    C15    O260      0.54772      .   S
    C71    O260      0.54772      .   S
    C14    O261      0.54771      .   S
    C70    O261      0.54771      .   S
    C81    O262      0.54192      .   S
    C29    O262      0.54192      .   S
    C81    O263      0.66250      .   S
    C135   O263      0.66250      .   S
    C80    O264      0.54191      .   S
    C28    O264      0.54191      .   S
    C80    O265      0.66250      .   S
    C134   O265      0.66250      .   S
    C70    O266      0.54904      .   S
    C16    O266      0.54904      .   S
    C70    O267      0.75951      .   S
    C60    O267      0.75951      .   S
    C71    O268      0.54904      .   S
    C17    O268      0.54904      .   S
    C71    O269      0.75949      .   S
    C61    O269      0.75949      .   S
    C132   O270      0.68593      .   S
    C134   O270      0.68593      .   S
    C132   O271      0.73270      .   S
    C76    O271      0.73270      .   S
    C133   O272      0.68577      .   S
    C135   O272      0.68577      .   S
    C133   O273      0.73263      .   S
    C77    O273      0.73263      .   S
    C23    O274      0.54831      .   S
    C77    O274      0.54831      .   S
    C22    O275      0.54832      .   S
    C76    O275      0.54832      .   S
    C59    O276      0.68473  1_455   S
    C61    O276      0.68473      .   S
    C59    O277      0.74673      .   S
    C62    O277      0.74673      .   S
    C58    O278      0.70578      .   S
    C60    O278      0.70578      .   S
    C58    O279      0.70542      .   S
    C63    O279      0.70542      .   S
    C77    O280      0.76039      .   S
    C63    O280      0.76039      .   S
    C77    O281      0.54697      .   S
    C25    O281      0.54697      .   S
    C76    O282      0.76040      .   S
    C62    O282      0.76040      .   S
    C76    O283      0.54697      .   S
    C24    O283      0.54697      .   S
    C60    O284      0.70549      .   S
    C90    O284      0.70549      .   S
    C61    O285      0.70550      .   S
    C91    O285      0.70550      .   S
    C63    O286      0.70555      .   S
    C89    O286      0.70555      .   S
    C62    O287      0.68698      .   S
    C88    O287      0.68698      .   S
    C51    O288      0.54697      .   S
    C105   O288      0.54697      .   S
    C50    O289      0.54697      .   S
    C104   O289      0.54697      .   S
    C90    O290      0.76041      .   S
    C104   O290      0.76041      .   S
    C90    O291      0.70545      .   S
    C87    O291      0.70545      .   S
    C91    O292      0.76039      .   S
    C105   O292      0.76039      .   S
    C91    O293      0.70541      .   S
    C86    O293      0.70541      .   S
    C88    O294      0.71227      .   S
    C86    O294      0.71227  1_655   S
    C88    O295      0.77157      .   S
    C98    O295      0.77157      .   S
    C89    O296      0.70578      .   S
    C87    O296      0.70578      .   S
    C89    O297      0.75947      .   S
    C99    O297      0.75947      .   S
    C104   O298      0.54831      .   S
    C48    O298      0.54831      .   S
    C104   O299      0.73263      .   S
    C150   O299      0.73263      .   S
    C105   O300      0.54832      .   S
    C49    O300      0.54832      .   S
    C105   O301      0.73263      .   S
    C151   O301      0.73263      .   S
    C153   O302      0.68575      .   S
    C151   O302      0.68575      .   S
    C153   O303      0.66250      .   S
    C109   O303      0.66250      .   S
    C152   O304      0.68577      .   S
    C150   O304      0.68577      .   S
    C152   O305      0.66240      .   S
    C108   O305      0.66240      .   S
    C42    O306      0.54896      .   S
    C98    O306      0.54896      .   S
    C43    O307      0.54905      .   S
    C99    O307      0.54905      .   S
    C86    O308      0.75726      .   S
    C92    O308      0.75726      .   S
    C87    O309      0.75726      .   S
    C93    O309      0.75726      .   S
    C150   O310      0.67174      .   S
    C106   O310      0.67174      .   S
    C151   O311      0.67173      .   S
    C107   O311      0.67173      .   S
    C98    O312      0.54792      .   S
    C40    O312      0.54792      .   S
    C98    O313      0.73560      .   S
    C144   O313      0.73560      .   S
    C99    O314      0.54777      .   S
    C41    O314      0.54777      .   S
    C99    O315      0.73554      .   S
    C145   O315      0.73554      .   S
    C54    O316      0.54185      .   S
    C108   O316      0.54185      .   S
    C55    O317      0.54192      .   S
    C109   O317      0.54192      .   S
    C108   O318      0.68534      .   S
    C148   O318      0.68534      .   S
    C109   O319      0.68515      .   S
    C149   O319      0.68515      .   S
    C147   O320      0.77500      .   S
    C144   O320      0.77500      .   S
    C147   O321      0.65002  1_455   S
    C103   O321      0.65002      .   S
    C146   O322      0.68653      .   S
    C145   O322      0.68653      .   S
    C146   O323      0.66400      .   S
    C102   O323      0.66400      .   S
    C145   O324      0.67390      .   S
    C101   O324      0.67390      .   S
    C144   O325      0.67389      .   S
    C100   O325      0.67389      .   S
    C92    O326      0.54792      .   S
    C33    O326      0.54792      .   S
    C92    O327      0.54839  1_655   S
    C34    O327      0.54839      .   S
    C92    O328      0.73478      .   S
    C139   O328      0.73478      .   S
    C93    O329      0.54793      .   S
    C32    O329      0.54793      .   S
    C93    O330      0.54841      .   S
    C35    O330      0.54841      .   S
    C93    O331      0.73473      .   S
    C138   O331      0.73473      .   S
    C107   O332      0.67096      .   S
    C149   O332      0.67096      .   S
    C107   O333      0.54391      .   S
    C53    O333      0.54391      .   S
    C106   O334      0.67095      .   S
    C148   O334      0.67095      .   S
    C106   O335      0.54432      .   S
    C52    O335      0.54432      .   S
    C47    O336      0.54309      .   S
    C103   O336      0.54309      .   S
    C46    O337      0.54310      .   S
    C102   O337      0.54310      .   S
    C102   O338      0.68451      .   S
    C143   O338      0.68451      .   S
    C103   O339      0.68446  1_655   S
    C142   O339      0.68446      .   S
    C148   O340      1.01619      .   S
    C0     O340      1.01619      .   S
    C149   O341      1.01623      .   S
    C1     O341      1.01623      .   S
    C140   O342      0.68646      .   S
    C138   O342      0.68646      .   S
    C140   O343      0.66250      .   S
    C96    O343      0.66250      .   S
    C141   O344      0.68658      .   S
    C139   O344      0.68658      .   S
    C141   O345      0.66217      .   S
    C97    O345      0.66217      .   S
    C161   O346      0.74202      .   S
    C115   O346      0.74202      .   S
    C160   O347      0.74200      .   S
    C114   O347      0.74200      .   S
    C138   O348      0.67126      .   S
    C94    O348      0.67126      .   S
    C139   O349      0.67104      .   S
    C95    O349      0.67104      .   S
    C101   O350      0.66893      .   S
    C143   O350      0.66893      .   S
    C101   O351      0.54424      .   S
    C45    O351      0.54424      .   S
    C100   O352      0.66893      .   S
    C142   O352      0.66893      .   S
    C100   O353      0.54464      .   S
    C44    O353      0.54464      .   S
    C154   O354      0.76964      .   S
    C115   O354      0.76964  1_655   S
    C154   O355      0.99440      .   S
    C0     O355      0.99440      .   S
    C155   O356      0.76973      .   S
    C114   O356      0.76973      .   S
    C155   O357      0.99440      .   S
    C1     O357      0.99440      .   S
    C143   O358      1.02744      .   S
    C5     O358      1.02744  1_564   S
    C97    O359      0.54197      .   S
    C39    O359      0.54197      .   S
    C97    O360      0.68692      .   S
    C137   O360      0.68692      .   S
    C96    O361      0.54204      .   S
    C38    O361      0.54204      .   S
    C96    O362      0.68649      .   S
    C136   O362      0.68649      .   S
    C115   O363      0.75486      .   S
    C157   O363      0.75486      .   S
    C115   O364      0.74400      .   S
    C159   O364      0.74400      .   S
    C114   O365      0.75487      .   S
    C156   O365      0.75487      .   S
    C114   O366      0.74400      .   S
    C158   O366      0.74400      .   S
    C1     O367      1.03765      .   S
    C163   O367      1.03765      .   S
    C0     O368      1.03766      .   S
    C162   O368      1.03766      .   S
    C95    O369      0.54482      .   S
    C37    O369      0.54482      .   S
    C95    O370      0.67092      .   S
    C137   O370      0.67092      .   S
    C94    O371      0.54484      .   S
    C36    O371      0.54484      .   S
    C94    O372      0.67092      .   S
    C136   O372      0.67092      .   S
    C156   O373      1.04508      .   S
    C5     O373      1.04508  1_554   S
    C163   O374      0.65652      .   S
    C83    O374      0.65652      .   S
    C162   O375      0.65650      .   S
    C82    O375      0.65650      .   S
    C165   O376      0.62850      .   S
    C83    O376      0.62850      .   S
    C164   O377      0.62852      .   S
    C82    O377      0.62852      .   S
    C82    O378      0.74072      .   S
    C84    O378      0.74072      .   S
    C83    O379      0.74069      .   S
    C85    O379      0.74069      .   S
