# CIF file generated by openbabel 2.4.90, see http://openbabel.sf.net
data_I
_chemical_name_common ''
_cell_length_a 12.316
_cell_length_b 16.202
_cell_length_c 17.134
_cell_angle_alpha 89.853
_cell_angle_beta 89.941
_cell_angle_gamma 90.059
_space_group_name_H-M_alt 'P 1'
_space_group_name_Hall 'P 1'
loop_
    _symmetry_equiv_pos_as_xyz
    x,y,z
loop_
    _atom_site_label
    _atom_site_type_symbol
    _atom_site_fract_x
    _atom_site_fract_y
    _atom_site_fract_z
    _atom_site_occupancy
    Zr0     Zr   0.25788   0.27988   0.53580   1.000
    Zr1     Zr   0.25789   0.77988   0.53580   1.000
    Zr2     Zr   0.75754   0.22112   0.46470   1.000
    Zr3     Zr   0.75755   0.72112   0.46469   1.000
    Zr4     Zr   0.25658   0.97015   0.03580   1.000
    Zr5     Zr   0.25657   0.47016   0.03580   1.000
    Zr6     Zr   0.75665   0.52945   0.96410   1.000
    Zr7     Zr   0.75666   0.00000   0.96410   1.000
    Zr8     Zr   0.43942   0.50179   0.36122   1.000
    Zr9     Zr   0.43943   0.00000   0.36123   1.000
    Zr10    Zr   0.93877   0.99930   0.63877   1.000
    Zr11    Zr   0.93877   0.49931   0.63877   1.000
    Zr12    Zr   0.43818   0.24920   0.86164   1.000
    Zr13    Zr   0.43819   0.74921   0.86165   1.000
    Zr14    Zr   0.93797   0.25019   0.13842   1.000
    Zr15    Zr   0.93797   0.75020   0.13842   1.000
    N16     N    0.41327   0.91843   0.19809   1.000
    O17     O    0.44099   0.93327   0.25345   1.000
    O18     O    0.35512   0.93611   0.14438   1.000
    N19     N    0.94654   0.31424   0.59439   1.000
    O20     O    0.96278   0.37012   0.62028   1.000
    O21     O    0.88316   0.28220   0.54872   1.000
    N22     N    0.94543   0.93560   0.09375   1.000
    O23     O    0.96173   0.87960   0.11973   1.000
    O24     O    0.88212   0.96048   0.04807   1.000
    N25     N    0.21065   0.44557   0.41682   1.000
    O26     O    0.27177   0.47689   0.38886   1.000
    O27     O    0.21872   0.38872   0.45922   1.000
    N28     N    0.06555   0.62300   0.52580   1.000
    O29     O    0.01326   0.57663   0.54789   1.000
    O30     O    0.13212   0.67611   0.53371   1.000
    N31     N    0.20941   0.30479   0.92785   1.000
    O32     O    0.27053   0.27376   0.89452   1.000
    O33     O    0.21747   0.36144   0.97287   1.000
    N34     N    0.41306   0.33285   0.69837   1.000
    O35     O    0.35549   0.31470   0.64450   1.000
    O36     O    0.44029   0.31766   0.75386   1.000
    N37     N    0.20942   0.80480   0.92785   1.000
    O38     O    0.27054   0.77376   0.89452   1.000
    O39     O    0.21748   0.86145   0.97288   1.000
    N40     N    0.70912   0.19412   0.08346   1.000
    O41     O    0.71726   0.13025   0.04095   1.000
    O42     O    0.77027   0.22531   0.11128   1.000
    N43     N    0.56573   0.87812   0.47437   1.000
    O44     O    0.63220   0.82499   0.46658   1.000
    O45     O    0.51353   0.92401   0.45219   1.000
    N46     N    0.06555   0.12299   0.52579   1.000
    O47     O    0.13212   0.17611   0.53371   1.000
    O48     O    0.01326   0.07662   0.54788   1.000
    N49     N    0.56461   0.37234   0.97463   1.000
    O50     O    0.51241   0.32609   0.95273   1.000
    O51     O    0.63111   0.42554   0.96647   1.000
    N52     N    0.94654   0.81424   0.59439   1.000
    O53     O    0.88316   0.78220   0.54872   1.000
    O54     O    0.96278   0.87012   0.62028   1.000
    N55     N    0.91283   0.16762   0.30216   1.000
    O56     O    0.94007   0.18246   0.24656   1.000
    O57     O    0.85524   0.18598   0.35602   1.000
    N58     N    0.94543   0.43559   0.09375   1.000
    O59     O    0.96173   0.37960   0.11973   1.000
    O60     O    0.88211   0.46784   0.04807   1.000
    N61     N    0.91255   0.08296   0.80163   1.000
    O62     O    0.94020   0.06772   0.74628   1.000
    O63     O    0.85467   0.05737   0.85545   1.000
    N64     N    0.71001   0.05540   0.58370   1.000
    O65     O    0.77113   0.02407   0.61147   1.000
    O66     O    0.71815   0.11230   0.54135   1.000
    N67     N    0.91283   0.66763   0.30216   1.000
    O68     O    0.85524   0.68598   0.35601   1.000
    O69     O    0.94006   0.68247   0.24656   1.000
    N70     N    0.71001   0.55541   0.58370   1.000
    O71     O    0.71816   0.61231   0.54135   1.000
    O72     O    0.77113   0.52407   0.61147   1.000
    N73     N    0.41326   0.41841   0.19809   1.000
    O74     O    0.44098   0.43371   0.25345   1.000
    O75     O    0.35511   0.43610   0.14437   1.000
    N76     N    0.44703   0.18685   0.40607   1.000
    O77     O    0.38354   0.21882   0.45173   1.000
    O78     O    0.46339   0.13057   0.38008   1.000
    N79     N    0.41307   0.83285   0.69837   1.000
    O80     O    0.35550   0.81471   0.64450   1.000
    O81     O    0.44031   0.81766   0.75386   1.000
    N82     N    0.44703   0.68685   0.40606   1.000
    O83     O    0.46339   0.63102   0.38007   1.000
    O84     O    0.38354   0.71883   0.45173   1.000
    N85     N    0.56462   0.87235   0.97463   1.000
    O86     O    0.51241   0.82610   0.95273   1.000
    O87     O    0.63111   0.91819   0.96647   1.000
    N88     N    0.70911   0.69413   0.08346   1.000
    O89     O    0.77026   0.72532   0.11128   1.000
    O90     O    0.71726   0.63761   0.04095   1.000
    N91     N    0.06440   0.12699   0.02553   1.000
    O92     O    0.01215   0.17321   0.04762   1.000
    O93     O    0.13096   0.07390   0.03349   1.000
    N94     N    0.06439   0.62700   0.02552   1.000
    O95     O    0.13095   0.57391   0.03348   1.000
    O96     O    0.01215   0.67322   0.04762   1.000
    N97     N    0.21066   0.94070   0.41683   1.000
    O98     O    0.27178   0.97035   0.38887   1.000
    O99     O    0.21873   0.88628   0.45923   1.000
    N100    N    0.56573   0.37811   0.47437   1.000
    O101    O    0.63220   0.32499   0.46658   1.000
    O102    O    0.51352   0.42446   0.45219   1.000
    N103    N    0.91254   0.58297   0.80164   1.000
    O104    O    0.94020   0.56772   0.74628   1.000
    O105    O    0.85466   0.56474   0.85545   1.000
loop_
    _geom_bond_atom_site_label_1
    _geom_bond_atom_site_label_2
    _geom_bond_distance
    _geom_bond_site_symmetry_2
    _ccdc_geom_bond_type
    N16    O17       1.03718      .   S
    Zr9    O17       2.14235  1_545   S
    N16    O18       1.20100      .   S
    Zr4    O18       2.28881      .   S
    N19    O20       1.02882      .   S
    Zr11   O20       2.13856      .   S
    N19    O21       1.22207      .   S
    Zr2    O21       2.33545      .   S
    N22    O23       1.02955      .   S
    Zr15   O23       2.13990      .   S
    N22    O24       1.17615      .   S
    Zr7    O24       2.20674  1_546   S
    N25    O26       1.02520      .   S
    Zr8    O26       2.15532      .   S
    N25    O27       1.17607      .   S
    Zr0    O27       2.24831      .   S
    N28    O29       1.05799      .   S
    Zr11   O29       2.19557  1_655   S
    N28    O30       1.19611      .   S
    Zr1    O30       2.28518      .   S
    N31    O32       1.07092      .   S
    Zr12   O32       2.17705      .   S
    N31    O33       1.20467      .   S
    Zr5    O33       2.12276  1_554   S
    N34    O35       1.20143      .   S
    Zr0    O35       2.28937      .   S
    N34    O36       1.03762      .   S
    Zr12   O36       2.15191      .   S
    N37    O38       1.07090      .   S
    Zr13   O38       2.17704      .   S
    N37    O39       1.20461      .   S
    Zr4    O39       2.12261  1_554   S
    N40    O41       1.27106      .   S
    Zr7    O41       2.53724  1_556   S
    N40    O42       1.02511      .   S
    Zr14   O42       2.15548      .   S
    N43    O44       1.19611      .   S
    Zr3    O44       2.28512      .   S
    N43    O45       1.05387      .   S
    Zr9    O45       2.18476  1_545   S
    N46    O47       1.19611      .   S
    Zr0    O47       2.28519      .   S
    N46    O48       1.05798      .   S
    Zr10   O48       2.19556  1_665   S
    N49    O50       1.05681      .   S
    Zr12   O50       2.19851      .   S
    N49    O51       1.19619      .   S
    Zr6    O51       2.28493      .   S
    N52    O53       1.22207      .   S
    Zr3    O53       2.33545      .   S
    N52    O54       1.02876      .   S
    Zr10   O54       2.13836      .   S
    N55    O56       1.03720      .   S
    Zr14   O56       2.15122      .   S
    N55    O57       1.20146      .   S
    Zr2    O57       2.28945      .   S
    N58    O59       1.02955      .   S
    Zr14   O59       2.13991      .   S
    N58    O60       1.22209      .   S
    Zr6    O60       2.33556  1_556   S
    N61    O62       1.03798      .   S
    Zr10   O62       2.15241  1_565   S
    N61    O63       1.23545      .   S
    Zr7    O63       2.40224      .   S
    N64    O65       1.02521      .   S
    Zr10   O65       2.15536  1_565   S
    N64    O66       1.17593      .   S
    Zr2    O66       2.24804      .   S
    N67    O68       1.20146      .   S
    Zr3    O68       2.28944      .   S
    N67    O69       1.03719      .   S
    Zr15   O69       2.15123      .   S
    N70    O71       1.17593      .   S
    Zr3    O71       2.24804      .   S
    N70    O72       1.02521      .   S
    Zr11   O72       2.15535      .   S
    N73    O74       1.03891      .   S
    Zr8    O74       2.15355      .   S
    N73    O75       1.20101      .   S
    Zr5    O75       2.28886      .   S
    N76    O77       1.22213      .   S
    Zr0    O77       2.33546      .   S
    N76    O78       1.03565      .   S
    Zr9    O78       2.16084      .   S
    N79    O80       1.20143      .   S
    Zr1    O80       2.28937      .   S
    N79    O81       1.03762      .   S
    Zr13   O81       2.15191      .   S
    N82    O83       1.02927      .   S
    Zr8    O83       2.13956      .   S
    N82    O84       1.22213      .   S
    Zr1    O84       2.33545      .   S
    N85    O86       1.05681      .   S
    Zr13   O86       2.19851      .   S
    N85    O87       1.11340      .   S
    Zr7    O87       2.03588  1_545   S
    N88    O89       1.02510      .   S
    Zr15   O89       2.15548      .   S
    N88    O90       1.17579      .   S
    Zr6    O90       2.24783  1_556   S
    N91    O92       1.05834      .   S
    Zr14   O92       2.19547  1_655   S
    N91    O93       1.19653      .   S
    Zr4    O93       2.28594  1_565   S
    N94    O95       1.19653      .   S
    Zr5    O95       2.28593      .   S
    N94    O96       1.05834      .   S
    Zr15   O96       2.19547  1_655   S
    N97    O98       1.01212      .   S
    Zr9    O98       2.17093  1_545   S
    N97    O99       1.14541      .   S
    Zr1    O99       2.21747      .   S
    N100   O101      1.19612      .   S
    Zr2    O101      2.28513      .   S
    N100   O102      1.05904      .   S
    Zr8    O102      2.19717      .   S
    N103   O104      1.03798      .   S
    Zr11   O104      2.15242      .   S
    N103   O105      1.20099      .   S
    Zr6    O105      2.28866      .   S
