# CIF file generated by openbabel 2.4.90, see http://openbabel.sf.net
data_I
_chemical_name_common ''
_cell_length_a 20.975
_cell_length_b 18.056
_cell_length_c 18.058
_cell_angle_alpha 120.058
_cell_angle_beta 90.008
_cell_angle_gamma 90.002
_space_group_name_H-M_alt 'P 1'
_space_group_name_Hall 'P 1'
loop_
    _symmetry_equiv_pos_as_xyz
    x,y,z
loop_
    _atom_site_label
    _atom_site_type_symbol
    _atom_site_fract_x
    _atom_site_fract_y
    _atom_site_fract_z
    _atom_site_occupancy
    H0      H    0.30687   0.29425   0.79112   1.000
    H1      H    0.80687   0.29425   0.79112   1.000
    H2      H    0.49096   0.33504   0.88619   1.000
    H3      H    0.99097   0.33504   0.88619   1.000
    H4      H    0.02284   0.18468   0.78187   1.000
    H5      H    0.52285   0.18467   0.78187   1.000
    H6      H    0.33016   0.14313   0.68278   1.000
    H7      H    0.83016   0.14313   0.68270   1.000
    H8      H    0.49197   0.04135   0.66725   1.000
    H9      H    0.99197   0.04135   0.66725   1.000
    H10     H    0.40941   0.01634   0.64611   1.000
    H11     H    0.90941   0.01634   0.64611   1.000
    H12     H    0.02481   0.14984   0.62550   1.000
    H13     H    0.52481   0.14984   0.62551   1.000
    H14     H    0.03004   0.19572   0.52273   1.000
    H15     H    0.53004   0.19572   0.52273   1.000
    H16     H    0.42150   0.07073   0.42243   1.000
    H17     H    0.92150   0.07073   0.42240   1.000
    H18     H    0.00129   0.06328   0.38899   1.000
    H19     H    0.50129   0.06328   0.38899   1.000
    H20     H    0.45417   0.15103   0.40347   1.000
    H21     H    0.95417   0.15103   0.40347   1.000
    H22     H    0.43045   0.27449   0.55394   1.000
    H23     H    0.93046   0.27449   0.55394   1.000
    H24     H    0.45450   0.26867   0.64490   1.000
    H25     H    0.95450   0.26866   0.64499   1.000
    H26     H    0.39103   0.20333   0.58001   1.000
    H27     H    0.89103   0.20333   0.58001   1.000
    H28     H    0.47352   0.49718   0.70581   1.000
    H29     H    0.97352   0.49719   0.70582   1.000
    H30     H    0.15765   0.55170   0.66554   1.000
    H31     H    0.65766   0.55171   0.66550   1.000
    H32     H    0.18942   0.59766   0.81586   1.000
    H33     H    0.68942   0.59767   0.81587   1.000
    H34     H    0.99670   0.53985   0.85686   1.000
    H35     H    0.49670   0.53985   0.85686   1.000
    H36     H    0.15843   0.62626   0.95901   1.000
    H37     H    0.65843   0.62626   0.95901   1.000
    H38     H    0.07587   0.62988   0.98383   1.000
    H39     H    0.57587   0.62988   0.98383   1.000
    H40     H    0.19147   0.47590   0.85026   1.000
    H41     H    0.69147   0.47590   0.85026   1.000
    H42     H    0.19675   0.32706   0.80400   1.000
    H43     H    0.69675   0.32706   0.80400   1.000
    H44     H    0.08816   0.35156   0.92878   1.000
    H45     H    0.58817   0.35156   0.92878   1.000
    H46     H    0.16797   0.32562   0.93627   1.000
    H47     H    0.66797   0.32562   0.93627   1.000
    H48     H    0.12091   0.25227   0.84838   1.000
    H49     H    0.62091   0.25227   0.84830   1.000
    H50     H    0.09723   0.27939   0.72510   1.000
    H51     H    0.59723   0.27939   0.72513   1.000
    H52     H    0.12123   0.37643   0.73123   1.000
    H53     H    0.62123   0.37643   0.73123   1.000
    H54     H    0.05772   0.37664   0.79637   1.000
    H55     H    0.55773   0.37663   0.79637   1.000
    H56     H    0.14022   0.20886   0.50327   1.000
    H57     H    0.64022   0.20886   0.50328   1.000
    H58     H    0.32429   0.11377   0.44864   1.000
    H59     H    0.82429   0.11377   0.44864   1.000
    H60     H    0.35607   0.21796   0.40258   1.000
    H61     H    0.85607   0.21797   0.40258   1.000
    H62     H    0.16341   0.31707   0.46048   1.000
    H63     H    0.66341   0.31707   0.46048   1.000
    H64     H    0.32514   0.33242   0.37390   1.000
    H65     H    0.82514   0.33242   0.37394   1.000
    H66     H    0.24257   0.35358   0.37020   1.000
    H67     H    0.74258   0.35358   0.37020   1.000
    H68     H    0.35822   0.37456   0.52425   1.000
    H69     H    0.85823   0.37456   0.52425   1.000
    H70     H    0.36348   0.47749   0.67306   1.000
    H71     H    0.86348   0.47750   0.67306   1.000
    H72     H    0.25479   0.57752   0.64847   1.000
    H73     H    0.75479   0.57752   0.64847   1.000
    H74     H    0.33456   0.61114   0.67455   1.000
    H75     H    0.83456   0.61114   0.67455   1.000
    H76     H    0.28749   0.59661   0.74779   1.000
    H77     H    0.78749   0.59661   0.74779   1.000
    H78     H    0.26407   0.44610   0.72068   1.000
    H79     H    0.76407   0.44610   0.72069   1.000
    H80     H    0.28804   0.35507   0.62359   1.000
    H81     H    0.78805   0.35507   0.62360   1.000
    C82     C    0.92948   0.15105   0.72180   1.000
    C83     C    0.36793   0.18295   0.72601   1.000
    C84     C    0.86793   0.18295   0.72601   1.000
    C85     C    0.44676   0.06182   0.65237   1.000
    H86     H    0.22448   0.41998   0.62349   1.000
    H87     H    0.72448   0.41999   0.62300   1.000
    H88     H    0.05697   0.70570   0.20892   1.000
    H89     H    0.55697   0.70570   0.20892   1.000
    H90     H    0.24098   0.66518   0.11367   1.000
    H91     H    0.74099   0.66518   0.11367   1.000
    H92     H    0.27281   0.81560   0.21797   1.000
    H93     H    0.77282   0.81560   0.21797   1.000
    H94     H    0.08021   0.85686   0.31723   1.000
    H95     H    0.58022   0.85686   0.31723   1.000
    H96     H    0.24198   0.95879   0.33282   1.000
    H97     H    0.74199   0.95879   0.33282   1.000
    H98     H    0.15942   0.98377   0.35393   1.000
    H99     H    0.65942   0.98377   0.35393   1.000
    H100    H    0.27481   0.85016   0.37438   1.000
    H101    H    0.77481   0.85016   0.37438   1.000
    H102    H    0.28010   0.80428   0.47720   1.000
    H103    H    0.78010   0.80427   0.47719   1.000
    H104    H    0.17141   0.92900   0.57727   1.000
    H105    H    0.67141   0.92900   0.57727   1.000
    H106    H    0.25117   0.93664   0.61088   1.000
    H107    H    0.75118   0.93664   0.61087   1.000
    H108    H    0.20414   0.84877   0.59630   1.000
    H109    H    0.70414   0.84877   0.59630   1.000
    H110    H    0.18064   0.72522   0.44575   1.000
    H111    H    0.68064   0.72522   0.44575   1.000
    C112    C    0.27115   0.42143   0.65190   1.000
    C113    C    0.77115   0.42143   0.65198   1.000
    C114    C    0.10424   0.73268   0.21399   1.000
    C115    C    0.60424   0.73268   0.21399   1.000
    C116    C    0.20729   0.71024   0.16019   1.000
    H117    H    0.20470   0.73115   0.35477   1.000
    H118    H    0.70470   0.73115   0.35477   1.000
    H119    H    0.14112   0.79628   0.41962   1.000
    H120    H    0.64112   0.79628   0.41961   1.000
    H121    H    0.22348   0.50278   0.29410   1.000
    H122    H    0.72348   0.50278   0.29410   1.000
    H123    H    0.40759   0.44829   0.33455   1.000
    H124    H    0.90760   0.44829   0.33455   1.000
    H125    H    0.43940   0.40245   0.18429   1.000
    H126    H    0.93941   0.40245   0.18429   1.000
    H127    H    0.24670   0.46023   0.14317   1.000
    H128    H    0.74670   0.46023   0.14317   1.000
    H129    H    0.40845   0.37386   0.04114   1.000
    H130    H    0.90845   0.37386   0.04114   1.000
    H131    H    0.32589   0.37018   0.01624   1.000
    H132    H    0.82590   0.37018   0.01624   1.000
    H133    H    0.44149   0.52424   0.14980   1.000
    H134    H    0.94150   0.52424   0.14980   1.000
    H135    H    0.44674   0.67307   0.19600   1.000
    H136    H    0.94674   0.67307   0.19600   1.000
    H137    H    0.33823   0.64850   0.07114   1.000
    H138    H    0.83823   0.64850   0.07110   1.000
    H139    H    0.41803   0.67454   0.06380   1.000
    H140    H    0.91804   0.67454   0.06380   1.000
    H141    H    0.37091   0.74782   0.15162   1.000
    H142    H    0.87092   0.74782   0.15162   1.000
    H143    H    0.34717   0.72064   0.27481   1.000
    H144    H    0.84717   0.72064   0.27481   1.000
    H145    H    0.37113   0.62359   0.26869   1.000
    H146    H    0.87113   0.62359   0.26869   1.000
    H147    H    0.30769   0.62340   0.20347   1.000
    H148    H    0.80769   0.62340   0.20340   1.000
    H149    H    0.39017   0.79116   0.49685   1.000
    H150    H    0.89017   0.79117   0.49680   1.000
    H151    H    0.07434   0.88597   0.55106   1.000
    H152    H    0.57434   0.88597   0.55106   1.000
    H153    H    0.10614   0.78176   0.59710   1.000
    H154    H    0.60614   0.78176   0.59710   1.000
    H155    H    0.41337   0.68294   0.53962   1.000
    H156    H    0.91338   0.68294   0.53963   1.000
    H157    H    0.07512   0.66751   0.62600   1.000
    H158    H    0.57512   0.66751   0.62607   1.000
    H159    H    0.49255   0.64633   0.62973   1.000
    H160    H    0.99256   0.64633   0.62970   1.000
    H161    H    0.10822   0.62534   0.47575   1.000
    H162    H    0.60822   0.62534   0.47575   1.000
    H163    H    0.11344   0.52246   0.32696   1.000
    H164    H    0.61345   0.52245   0.32695   1.000
    H165    H    0.00483   0.42229   0.35150   1.000
    H166    H    0.50483   0.42229   0.35150   1.000
    H167    H    0.08461   0.38877   0.32546   1.000
    H168    H    0.58462   0.38877   0.32546   1.000
    H169    H    0.03751   0.40325   0.25219   1.000
    H170    H    0.53751   0.40324   0.25219   1.000
    H171    H    0.01394   0.55372   0.27932   1.000
    H172    H    0.51395   0.55372   0.27932   1.000
    H173    H    0.03795   0.64479   0.37639   1.000
    H174    H    0.53795   0.64479   0.37630   1.000
    H175    H    0.47443   0.57983   0.37654   1.000
    H176    H    0.97444   0.57983   0.37650   1.000
    C177    C    0.35416   0.26735   0.78601   1.000
    C178    C    0.85417   0.26735   0.78601   1.000
    C179    C    0.45727   0.28993   0.83971   1.000
    C180    C    0.95727   0.28993   0.83971   1.000
    C181    C    0.47436   0.20611   0.78124   1.000
    C182    C    0.97436   0.20611   0.78124   1.000
    C183    C    0.42948   0.15105   0.72180   1.000
    C184    C    0.94677   0.06182   0.65237   1.000
    C185    C    0.00641   0.10601   0.56072   1.000
    C186    C    0.50641   0.10601   0.56072   1.000
    C187    C    0.48628   0.16207   0.52246   1.000
    C188    C    0.98629   0.16207   0.52246   1.000
    C189    C    0.46438   0.10874   0.42939   1.000
    C190    C    0.96438   0.10874   0.42900   1.000
    C191    C    0.43765   0.23051   0.57861   1.000
    C192    C    0.93765   0.23051   0.57861   1.000
    C193    C    0.02080   0.51900   0.73282   1.000
    C194    C    0.52080   0.51899   0.73280   1.000
    C195    C    0.12392   0.55024   0.71052   1.000
    C196    C    0.62392   0.55024   0.71052   1.000
    C197    C    0.14095   0.57554   0.79431   1.000
    C198    C    0.64096   0.57554   0.79431   1.000
    C199    C    0.09604   0.57102   0.84920   1.000
    C200    C    0.59604   0.57102   0.84920   1.000
    C201    C    0.03451   0.54333   0.81718   1.000
    C202    C    0.53451   0.54332   0.81710   1.000
    C203    C    0.11329   0.59075   0.93838   1.000
    C204    C    0.61329   0.59075   0.93838   1.000
    C205    C    0.17306   0.45482   0.89393   1.000
    C206    C    0.67307   0.45483   0.89393   1.000
    C207    C    0.15297   0.36040   0.83768   1.000
    C208    C    0.65297   0.36040   0.83768   1.000
    C209    C    0.13107   0.32055   0.89081   1.000
    C210    C    0.63107   0.32055   0.89081   1.000
    C211    C    0.10437   0.34811   0.76922   1.000
    C212    C    0.60437   0.34811   0.76922   1.000
    C213    C    0.18749   0.21394   0.48141   1.000
    C214    C    0.68749   0.21394   0.48141   1.000
    C215    C    0.29057   0.16023   0.45010   1.000
    C216    C    0.79057   0.16023   0.45011   1.000
    C217    C    0.30761   0.21864   0.42475   1.000
    C218    C    0.80762   0.21864   0.42475   1.000
    C219    C    0.26272   0.27808   0.42925   1.000
    C220    C    0.76273   0.27808   0.42925   1.000
    C221    C    0.20120   0.27388   0.45701   1.000
    C222    C    0.70121   0.27388   0.45701   1.000
    C223    C    0.27998   0.34741   0.40940   1.000
    C224    C    0.77998   0.34741   0.40941   1.000
    C225    C    0.33977   0.43932   0.54529   1.000
    C226    C    0.83977   0.43932   0.54529   1.000
    C227    C    0.31968   0.47764   0.63969   1.000
    C228    C    0.81968   0.47765   0.63900   1.000
    C229    C    0.29769   0.57067   0.67953   1.000
    C230    C    0.79769   0.57067   0.67953   1.000
    C231    C    0.70729   0.71024   0.16019   1.000
    C232    C    0.22436   0.79409   0.21865   1.000
    C233    C    0.72436   0.79409   0.21864   1.000
    C234    C    0.17949   0.84906   0.27815   1.000
    C235    C    0.67949   0.84907   0.27815   1.000
    C236    C    0.11797   0.81710   0.27397   1.000
    C237    C    0.61797   0.81710   0.27397   1.000
    C238    C    0.19678   0.93828   0.34764   1.000
    C239    C    0.69678   0.93828   0.34764   1.000
    C240    C    0.25642   0.89394   0.43918   1.000
    C241    C    0.75642   0.89394   0.43918   1.000
    C242    C    0.23631   0.83782   0.47738   1.000
    C243    C    0.73631   0.83782   0.47737   1.000
    C244    C    0.21432   0.89109   0.57040   1.000
    C245    C    0.71432   0.89108   0.57039   1.000
    C246    C    0.18778   0.76924   0.42111   1.000
    C247    C    0.68778   0.76924   0.42110   1.000
    C248    C    0.27076   0.48101   0.26720   1.000
    C249    C    0.77077   0.48101   0.26720   1.000
    C250    C    0.37387   0.44978   0.28956   1.000
    C251    C    0.87387   0.44978   0.28956   1.000
    C252    C    0.39093   0.42454   0.20580   1.000
    C253    C    0.89093   0.42455   0.20580   1.000
    C254    C    0.34603   0.42908   0.15089   1.000
    C255    C    0.84604   0.42908   0.15089   1.000
    C256    C    0.28449   0.45674   0.18287   1.000
    C257    C    0.78450   0.45674   0.18287   1.000
    C258    C    0.36330   0.40935   0.06171   1.000
    C259    C    0.86330   0.40935   0.06171   1.000
    C260    C    0.42308   0.54528   0.10612   1.000
    C261    C    0.92308   0.54528   0.10612   1.000
    C262    C    0.40298   0.63969   0.16234   1.000
    C263    C    0.90298   0.63969   0.16230   1.000
    C264    C    0.38110   0.67954   0.10919   1.000
    C265    C    0.88110   0.67955   0.10910   1.000
    C266    C    0.35432   0.65193   0.23070   1.000
    C267    C    0.85433   0.65193   0.23000   1.000
    C268    C    0.43746   0.78602   0.51862   1.000
    C269    C    0.93747   0.78602   0.51863   1.000
    C270    C    0.04061   0.83957   0.54969   1.000
    C271    C    0.54061   0.83957   0.54969   1.000
    C272    C    0.05765   0.78115   0.57504   1.000
    C273    C    0.55766   0.78115   0.57504   1.000
    C274    C    0.01273   0.72181   0.57068   1.000
    C275    C    0.51273   0.72181   0.57067   1.000
    C276    C    0.45118   0.72608   0.54301   1.000
    C277    C    0.95119   0.72608   0.54302   1.000
    C278    C    0.02997   0.65250   0.59056   1.000
    C279    C    0.52997   0.65250   0.59056   1.000
    C280    C    0.08976   0.56058   0.45471   1.000
    C281    C    0.58976   0.56058   0.45471   1.000
    C282    C    0.06966   0.52225   0.36030   1.000
    C283    C    0.56966   0.52225   0.36030   1.000
    C284    C    0.04772   0.42920   0.32046   1.000
    C285    C    0.54772   0.42919   0.32046   1.000
    C286    C    0.02107   0.57842   0.34803   1.000
    C287    C    0.52108   0.57842   0.34803   1.000
    N288    N    0.39834   0.32100   0.84184   1.000
    N289    N    0.89834   0.32100   0.84184   1.000
    N290    N    0.06500   0.52129   0.67930   1.000
    N291    N    0.56500   0.52129   0.67932   1.000
    N292    N    0.23167   0.15812   0.47913   1.000
    N293    N    0.73167   0.15813   0.47913   1.000
    N294    N    0.14839   0.67910   0.15811   1.000
    N295    N    0.64840   0.67910   0.15811   1.000
    N296    N    0.31495   0.47870   0.32072   1.000
    N297    N    0.81496   0.47870   0.32072   1.000
    N298    N    0.48167   0.84176   0.52079   1.000
    N299    N    0.98168   0.84176   0.52080   1.000
loop_
    _geom_bond_atom_site_label_1
    _geom_bond_atom_site_label_2
    _geom_bond_distance
    _geom_bond_site_symmetry_2
    _ccdc_geom_bond_type
    H132   C259      1.09907      .   S
    H131   C258      1.09907      .   S
    H129   C258      1.09873      .   S
    H130   C259      1.09874      .   S
    C259   C255      1.50893      .   S
    C258   C254      1.50893      .   S
    H140   C265      1.09708      .   S
    H139   C264      1.09823      .   S
    H138   C265      1.09925      .   S
    H137   C264      1.09959      .   S
    C260   H133      1.10267      .   S
    C260   C262      1.54305      .   S
    C261   H134      1.10267      .   S
    C261   C263      1.54297      .   S
    C265   H142      1.09852      .   S
    C265   C263      1.53089      .   S
    C264   H141      1.09830      .   S
    C264   C262      1.53011      .   S
    H91    C231      1.08748      .   S
    H90    C116      1.08748      .   S
    H128   C257      1.09155      .   S
    H127   C256      1.09155      .   S
    C254   C256      1.40017      .   S
    C254   C252      1.39920      .   S
    C255   C257      1.40017      .   S
    C255   C253      1.39921      .   S
    N294   C116      1.34997      .   S
    N294   C114      1.35444      .   S
    N295   C231      1.34997      .   S
    N295   C115      1.35444      .   S
    C231   C233      1.39045      .   S
    C116   C232      1.39049      .   S
    C263   H136      1.09928      .   S
    C263   C267      1.52135      .   S
    C262   H135      1.09909      .   S
    C262   C266      1.53009      .   S
    C256   C248      1.38768      .   S
    C257   C249      1.38767      .   S
    H126   C253      1.09024      .   S
    H125   C252      1.09024      .   S
    H148   C267      1.09767      .   S
    H147   C266      1.10001      .   S
    C253   C251      1.39041      .   S
    C252   C250      1.39041      .   S
    H89    C115      1.08805      .   S
    H88    C114      1.08805      .   S
    C114   C236      1.38763      .   S
    C115   C237      1.38763      .   S
    H92    C232      1.09026      .   S
    H93    C233      1.09023      .   S
    C233   C235      1.39914      .   S
    C232   C234      1.39905      .   S
    C267   H146      1.11016      .   S
    C267   H144      1.10042      .   S
    C266   H145      1.09931      .   S
    C266   H143      1.09834      .   S
    H170   C285      1.09840      .   S
    H169   C284      1.09841      .   S
    C248   H121      1.08779      .   S
    C248   N296      1.35456      .   S
    C249   H122      1.08778      .   S
    C249   N297      1.35457      .   S
    C237   C235      1.40010      .   S
    C237   H95       1.09150      .   S
    C236   C234      1.40009      .   S
    C236   H94       1.09149      .   S
    C235   C239      1.50860      .   S
    C234   C238      1.50860      .   S
    H172   C287      1.09836      .   S
    H171   C286      1.09836      .   S
    C251   N297      1.35000      .   S
    C251   H124      1.08752      .   S
    C250   N296      1.35002      .   S
    C250   H123      1.08751      .   S
    C284   H167      1.09813      .   S
    C284   H165      1.09960      .   S
    C284   C282      1.53017      .   S
    C285   H168      1.09813      .   S
    C285   H166      1.09960      .   S
    C285   C283      1.53017      .   S
    H164   C283      1.09932      .   S
    H163   C282      1.09922      .   S
    H97    C239      1.09873      .   S
    H96    C238      1.09873      .   S
    C239   H99       1.09905      .   S
    C238   H98       1.09905      .   S
    C286   C282      1.53005      .   S
    C286   H173      1.09942      .   S
    C286   H176      1.09955  1_455   S
    C287   C283      1.53005      .   S
    C287   H174      1.09957      .   S
    C287   H175      1.09999      .   S
    H117   C246      1.09949      .   S
    H118   C247      1.09936      .   S
    C282   C280      1.54310      .   S
    C283   C281      1.54309      .   S
    H66    C223      1.09905      .   S
    H67    C224      1.09918      .   S
    H64    C223      1.09898      .   S
    H65    C224      1.09873      .   S
    H100   C240      1.10295      .   S
    H101   C241      1.10294      .   S
    H18    C190      1.09601  1_455   S
    H19    C189      1.09812      .   S
    H60    C217      1.09027      .   S
    H61    C218      1.09027      .   S
    H21    C190      1.09277      .   S
    H20    C189      1.09823      .   S
    C223   C219      1.50876      .   S
    C224   C220      1.50864      .   S
    H120   C247      1.09997      .   S
    H119   C246      1.09998      .   S
    C247   H111      1.09846      .   S
    C247   C243      1.53016      .   S
    C246   H110      1.09833      .   S
    C246   C242      1.53014      .   S
    H17    C190      1.10091      .   S
    H16    C189      1.09959      .   S
    C218   C220      1.39914      .   S
    C218   C216      1.39054      .   S
    C217   C219      1.39914      .   S
    C217   C215      1.39042      .   S
    C190   C188      1.53575      .   S
    C219   C221      1.40018      .   S
    C220   C222      1.40016      .   S
    C189   C187      1.53023      .   S
    C240   C242      1.54307      .   S
    C241   C243      1.54295      .   S
    H58    C215      1.08746      .   S
    H59    C216      1.08740      .   S
    C215   N292      1.35003      .   S
    C216   N293      1.34998      .   S
    C280   H161      1.10296      .   S
    C281   H162      1.10298      .   S
    C222   H63       1.09154      .   S
    C222   C214      1.38770      .   S
    C221   H62       1.09153      .   S
    C221   C213      1.38769      .   S
    H103   C243      1.09929      .   S
    H102   C242      1.09928      .   S
    C243   C245      1.53013      .   S
    C242   C244      1.53013      .   S
    N293   C214      1.35452      .   S
    N292   C213      1.35452      .   S
    C213   H56       1.08807      .   S
    C214   H57       1.08813      .   S
    H150   C269      1.08851      .   S
    H149   C268      1.08805      .   S
    C268   N298      1.35451      .   S
    C268   C276      1.38774      .   S
    C269   N299      1.35450      .   S
    C269   C277      1.38772      .   S
    N298   C271      1.34999      .   S
    N299   C270      1.34983  1_655   S
    C188   H14       1.09920  1_655   S
    C188   C185      1.54289  1_655   S
    C188   C192      1.53008      .   S
    C187   H15       1.09930      .   S
    C187   C186      1.54292      .   S
    C187   C191      1.53008      .   S
    H68    C225      1.10296      .   S
    H69    C226      1.10297      .   S
    H155   C276      1.09153      .   S
    H156   C277      1.09153      .   S
    C276   C275      1.40013      .   S
    C277   C274      1.40003  1_655   S
    C226   C228      1.53201      .   S
    C225   C227      1.54297      .   S
    C271   H152      1.08738      .   S
    C271   C273      1.39053      .   S
    C270   H151      1.08738      .   S
    C270   C272      1.39051      .   S
    H22    C191      1.09828      .   S
    H23    C192      1.09829      .   S
    C186   H13       1.10292      .   S
    C185   H12       1.10280      .   S
    C245   H105      1.09957      .   S
    C245   H109      1.09834      .   S
    C245   H107      1.09815      .   S
    C244   H104      1.09959      .   S
    C244   H108      1.09820      .   S
    C244   H106      1.09815      .   S
    C275   C273      1.39911      .   S
    C275   C279      1.50874      .   S
    C274   C272      1.39917      .   S
    C274   C278      1.50863      .   S
    C273   H154      1.09023      .   S
    C272   H153      1.09025      .   S
    C191   H26       1.10000      .   S
    C191   H24       1.09829      .   S
    C192   H27       1.10001      .   S
    C192   H25       1.09955      .   S
    C279   H158      1.09873      .   S
    C279   H159      1.09905      .   S
    C278   H157      1.09815      .   S
    C278   H160      1.09857  1_455   S
    H87    C113      1.10412      .   S
    H86    C112      1.09941      .   S
    H80    C112      1.09957      .   S
    H81    C113      1.09945      .   S
    C228   C113      1.53613      .   S
    C228   H71       1.10625      .   S
    C228   C230      1.52923      .   S
    C227   C112      1.52945      .   S
    C227   H70       1.09936      .   S
    C227   C229      1.53017      .   S
    H10    C85       1.09905      .   S
    H11    C184      1.09906      .   S
    H73    C230      1.09957      .   S
    H72    C229      1.09956      .   S
    C112   H78       1.09954      .   S
    C113   H79       1.09837      .   S
    C184   H9        1.09871      .   S
    C184   C82       1.50866      .   S
    C85    H8        1.09870      .   S
    C85    C183      1.50866      .   S
    H31    C196      1.08811      .   S
    H30    C195      1.08754      .   S
    H75    C230      1.09808      .   S
    H74    C229      1.09811      .   S
    N290   C195      1.35013      .   S
    N290   C193      1.35482      .   S
    N291   C196      1.35002      .   S
    N291   C194      1.35432      .   S
    C230   H77       1.09832      .   S
    C229   H76       1.09832      .   S
    H7     C84       1.09207      .   S
    H6     C83       1.09151      .   S
    H28    C194      1.08802      .   S
    H29    C193      1.08795  1_655   S
    C196   C198      1.39041      .   S
    C195   C197      1.39041      .   S
    C82    C84       1.40012      .   S
    C82    C182      1.39911      .   S
    C183   C83       1.40014      .   S
    C183   C181      1.39908      .   S
    H50    C211      1.09843      .   S
    H51    C212      1.09834      .   S
    C84    C178      1.38768      .   S
    C83    C177      1.38768      .   S
    H53    C212      1.09935      .   S
    H52    C211      1.09935      .   S
    C194   C202      1.38670      .   S
    C193   C201      1.38772      .   S
    C211   H54       1.10003      .   S
    C211   C207      1.53018      .   S
    C212   H55       1.10002      .   S
    C212   C208      1.53019      .   S
    C182   H4        1.09008  1_655   S
    C182   C180      1.39047      .   S
    C181   H5        1.09022      .   S
    C181   C179      1.39046      .   S
    C178   H1        1.08807      .   S
    C178   N289      1.35449      .   S
    C177   H0        1.08807      .   S
    C177   N288      1.35447      .   S
    C198   H33       1.09028      .   S
    C198   C200      1.39924      .   S
    C197   H32       1.09028      .   S
    C197   C199      1.39923      .   S
    H43    C208      1.09959      .   S
    H42    C207      1.09959      .   S
    C202   C200      1.40048      .   S
    C202   H35       1.09250      .   S
    C201   C199      1.40013      .   S
    C201   H34       1.09150  1_455   S
    C208   C210      1.53000      .   S
    C208   C206      1.54306      .   S
    C207   C209      1.53001      .   S
    C207   C205      1.54305      .   S
    C180   N289      1.34995      .   S
    C180   H3        1.08742      .   S
    C179   N288      1.34997      .   S
    C179   H2        1.08741      .   S
    H49    C210      1.09850      .   S
    H48    C209      1.09831      .   S
    C200   C204      1.50870      .   S
    C199   C203      1.50871      .   S
    H41    C206      1.10296      .   S
    H40    C205      1.10297      .   S
    C210   H45       1.09959      .   S
    C210   H47       1.09815      .   S
    C209   H44       1.09959      .   S
    C209   H46       1.09815      .   S
    C203   H36       1.09876      .   S
    C203   H38       1.09912      .   S
    C204   H37       1.09875      .   S
    C204   H39       1.09911      .   S
