# CIF file generated by openbabel 2.4.90, see http://openbabel.sf.net
data_I
_chemical_name_common ''
_cell_length_a 20.975
_cell_length_b 18.056
_cell_length_c 18.058
_cell_angle_alpha 120.058
_cell_angle_beta 90.008
_cell_angle_gamma 90.002
_space_group_name_H-M_alt 'P 1'
_space_group_name_Hall 'P 1'
loop_
    _symmetry_equiv_pos_as_xyz
    x,y,z
loop_
    _atom_site_label
    _atom_site_type_symbol
    _atom_site_fract_x
    _atom_site_fract_y
    _atom_site_fract_z
    _atom_site_occupancy
    H0      H    0.40992   0.07114   0.55200   1.000
    H1      H    0.90992   0.07114   0.55200   1.000
    H2      H    0.07655   0.48092   0.92876   1.000
    H3      H    0.57656   0.48092   0.92876   1.000
    H4      H    0.24325   0.44793   0.51913   1.000
    H5      H    0.74325   0.44793   0.51913   1.000
    H6      H    0.15991   0.92880   0.44780   1.000
    H7      H    0.65992   0.92880   0.44784   1.000
    H8      H    0.32657   0.51914   0.07127   1.000
    H9      H    0.82657   0.51914   0.07127   1.000
    H10     H    0.49325   0.55194   0.48084   1.000
    H11     H    0.99326   0.55194   0.48084   1.000
    N12     N    0.45332   0.05470   0.56679   1.000
    N13     N    0.95332   0.05470   0.56679   1.000
    N14     N    0.11994   0.51218   0.94528   1.000
    N15     N    0.61994   0.51218   0.94528   1.000
    N16     N    0.28663   0.43309   0.48788   1.000
    N17     N    0.78664   0.43309   0.48788   1.000
    N18     N    0.20332   0.94528   0.43316   1.000
    N19     N    0.70333   0.94528   0.43316   1.000
    N20     N    0.36995   0.48789   0.05470   1.000
    N21     N    0.86996   0.48789   0.05470   1.000
    N22     N    0.03664   0.56681   0.51211   1.000
    N23     N    0.53664   0.56681   0.51211   1.000
loop_
    _geom_bond_atom_site_label_1
    _geom_bond_atom_site_label_2
    _geom_bond_distance
    _geom_bond_site_symmetry_2
    _ccdc_geom_bond_type
    N21    H9        1.03295      .   S
    N20    H8        1.03295      .   S
    N19    H7        1.03294      .   S
    N18    H6        1.03265      .   S
    H10    N23       1.03296      .   S
    H11    N22       1.03285  1_655   S
    N16    H4        1.03296      .   S
    N17    H5        1.03296      .   S
    H0     N12       1.03334      .   S
    H1     N13       1.03334      .   S
    H2     N14       1.03292      .   S
    H3     N15       1.03293      .   S
