# CIF file generated by openbabel 2.4.90, see http://openbabel.sf.net
data_I
_chemical_name_common ''
_cell_length_a 20.975
_cell_length_b 18.056
_cell_length_c 18.058
_cell_angle_alpha 120.058
_cell_angle_beta 90.008
_cell_angle_gamma 90.002
_space_group_name_H-M_alt 'P 1'
_space_group_name_Hall 'P 1'
loop_
    _symmetry_equiv_pos_as_xyz
    x,y,z
loop_
    _atom_site_label
    _atom_site_type_symbol
    _atom_site_fract_x
    _atom_site_fract_y
    _atom_site_fract_z
    _atom_site_occupancy
    C0      C    0.06374   0.04863   0.51256   1.000
    C1      C    0.56375   0.04863   0.51256   1.000
    C2      C    0.23039   0.46399   0.95130   1.000
    C3      C    0.73039   0.46399   0.95130   1.000
    C4      C    0.39705   0.48754   0.53609   1.000
    C5      C    0.89705   0.48754   0.53609   1.000
    C6      C    0.31376   0.95133   0.48739   1.000
    C7      C    0.81376   0.95133   0.48739   1.000
    C8      C    0.48040   0.53611   0.04876   1.000
    C9      C    0.98040   0.53611   0.04876   1.000
    C10     C    0.14705   0.51237   0.46392   1.000
    C11     C    0.64705   0.51237   0.46392   1.000
    Br12    Br   0.44755   0.86529   0.32300   1.000
    Br13    Br   0.94755   0.86529   0.32300   1.000
    Br14    Br   0.11416   0.45836   0.13442   1.000
    Br15    Br   0.61416   0.45836   0.13442   1.000
    Br16    Br   0.28077   0.67596   0.54128   1.000
    Br17    Br   0.78078   0.67596   0.54128   1.000
    Br18    Br   0.19753   0.13467   0.67620   1.000
    Br19    Br   0.69754   0.13466   0.67620   1.000
    Br20    Br   0.36416   0.54173   0.86564   1.000
    Br21    Br   0.86416   0.54173   0.86564   1.000
    Br22    Br   0.03077   0.32397   0.45875   1.000
    Br23    Br   0.53077   0.32397   0.45875   1.000
    O24     O    0.06141   0.96873   0.48723   1.000
    O25     O    0.56141   0.96873   0.48720   1.000
    O26     O    0.11074   0.08680   0.50272   1.000
    O27     O    0.61074   0.08680   0.50272   1.000
    O28     O    0.22803   0.51848   0.03124   1.000
    O29     O    0.72803   0.51848   0.03124   1.000
    O30     O    0.27738   0.41595   0.91309   1.000
    O31     O    0.77739   0.41595   0.91309   1.000
    O32     O    0.39470   0.51265   0.48142   1.000
    O33     O    0.89470   0.51266   0.48142   1.000
    O34     O    0.44403   0.49762   0.58422   1.000
    O35     O    0.94403   0.49762   0.58422   1.000
    O36     O    0.31141   0.03124   0.51278   1.000
    O37     O    0.81141   0.03124   0.51278   1.000
    O38     O    0.36074   0.91316   0.49726   1.000
    O39     O    0.86074   0.91316   0.49726   1.000
    O40     O    0.47803   0.48159   0.96883   1.000
    O41     O    0.97803   0.48159   0.96883   1.000
    O42     O    0.02741   0.58413   0.08698   1.000
    O43     O    0.52741   0.58413   0.08698   1.000
    O44     O    0.14470   0.48728   0.51861   1.000
    O45     O    0.64471   0.48728   0.51861   1.000
    O46     O    0.19401   0.50228   0.41579   1.000
    O47     O    0.69402   0.50228   0.41579   1.000
loop_
    _geom_bond_atom_site_label_1
    _geom_bond_atom_site_label_2
    _geom_bond_distance
    _geom_bond_site_symmetry_2
    _ccdc_geom_bond_type
    O29    C3        1.27732  1_554   S
    O28    C2        1.27732  1_554   S
    C9     O42       1.26509  1_655   S
    C9     O41       1.27730  1_554   S
    C8     O43       1.26519      .   S
    C8     O40       1.27731  1_554   S
    O46    C10       1.26520      .   S
    O47    C11       1.26520      .   S
    C10    O44       1.27724      .   S
    C11    O45       1.27723      .   S
    O32    C4        1.27712      .   S
    O33    C5        1.27713      .   S
    O25    C1        1.27739  1_565   S
    O24    C0        1.27750  1_565   S
    C7     O39       1.26524      .   S
    C7     O37       1.27750  1_565   S
    C6     O38       1.26524      .   S
    C6     O36       1.27750  1_565   S
    O26    C0        1.26527      .   S
    O27    C1        1.26525      .   S
    C5     O35       1.26527      .   S
    C4     O34       1.26527      .   S
    O31    C3        1.26522      .   S
    O30    C2        1.26522      .   S
