# CIF file generated by openbabel 2.4.90, see http://openbabel.sf.net
data_I
_chemical_name_common ''
_cell_length_a 20.975
_cell_length_b 18.056
_cell_length_c 18.058
_cell_angle_alpha 120.058
_cell_angle_beta 90.008
_cell_angle_gamma 90.002
_space_group_name_H-M_alt 'P 1'
_space_group_name_Hall 'P 1'
loop_
    _symmetry_equiv_pos_as_xyz
    x,y,z
loop_
    _atom_site_label
    _atom_site_type_symbol
    _atom_site_fract_x
    _atom_site_fract_y
    _atom_site_fract_z
    _atom_site_occupancy
    C0      C    0.06374   0.04863   0.51256   1.000
    C1      C    0.56375   0.04863   0.51256   1.000
    C2      C    0.23039   0.46399   0.95130   1.000
    C3      C    0.73039   0.46399   0.95130   1.000
    C4      C    0.39705   0.48754   0.53609   1.000
    C5      C    0.89705   0.48754   0.53609   1.000
    C6      C    0.31376   0.95133   0.48739   1.000
    C7      C    0.81376   0.95133   0.48739   1.000
    C8      C    0.48040   0.53611   0.04876   1.000
    C9      C    0.98040   0.53611   0.04876   1.000
    C10     C    0.14705   0.51237   0.46392   1.000
    C11     C    0.64705   0.51237   0.46392   1.000
