# CIF file generated by openbabel 2.4.90, see http://openbabel.sf.net
data_I
_chemical_name_common ''
_cell_length_a 20.975
_cell_length_b 18.056
_cell_length_c 18.058
_cell_angle_alpha 120.058
_cell_angle_beta 90.008
_cell_angle_gamma 90.002
_space_group_name_H-M_alt 'P 1'
_space_group_name_Hall 'P 1'
loop_
    _symmetry_equiv_pos_as_xyz
    x,y,z
loop_
    _atom_site_label
    _atom_site_type_symbol
    _atom_site_fract_x
    _atom_site_fract_y
    _atom_site_fract_z
    _atom_site_occupancy
    Zr0     Zr   0.46103   0.92342   0.47399   1.000
    Zr1     Zr   0.96103   0.92342   0.47000   1.000
    Zr2     Zr   0.12769   0.55051   0.07647   1.000
    Zr3     Zr   0.62769   0.55051   0.07647   1.000
    Zr4     Zr   0.29434   0.52569   0.44929   1.000
    Zr5     Zr   0.79435   0.52569   0.44929   1.000
    Zr6     Zr   0.21102   0.07653   0.52601   1.000
    Zr7     Zr   0.71102   0.07653   0.52601   1.000
    Zr8     Zr   0.37767   0.44956   0.92357   1.000
    Zr9     Zr   0.87767   0.44956   0.92357   1.000
    Zr10    Zr   0.04435   0.47425   0.55074   1.000
    Zr11    Zr   0.54436   0.47425   0.55074   1.000
    Zr12    Zr   0.44755   0.86529   0.32300   1.000
    Zr13    Zr   0.94755   0.86529   0.32300   1.000
    Zr14    Zr   0.11416   0.45836   0.13442   1.000
    Zr15    Zr   0.61416   0.45836   0.13442   1.000
    Zr16    Zr   0.28077   0.67596   0.54128   1.000
    Zr17    Zr   0.78078   0.67596   0.54128   1.000
    Zr18    Zr   0.19753   0.13467   0.67620   1.000
    Zr19    Zr   0.69754   0.13466   0.67620   1.000
    Zr20    Zr   0.36416   0.54173   0.86564   1.000
    Zr21    Zr   0.86416   0.54173   0.86564   1.000
    Zr22    Zr   0.03077   0.32397   0.45875   1.000
    Zr23    Zr   0.53077   0.32397   0.45875   1.000
    O24     O    0.62093   0.50444   0.10544   1.000
    O25     O    0.12092   0.50444   0.10544   1.000
    O26     O    0.45429   0.89436   0.39849   1.000
    O27     O    0.95429   0.89436   0.39650   1.000
    O28     O    0.28756   0.60082   0.49528   1.000
    O29     O    0.78756   0.60082   0.49528   1.000
    O30     O    0.53756   0.39911   0.50474   1.000
    O31     O    0.03756   0.39911   0.50474   1.000
    O32     O    0.20428   0.10560   0.60110   1.000
    O33     O    0.70428   0.10560   0.60110   1.000
    O34     O    0.37091   0.49565   0.89460   1.000
    O35     O    0.87092   0.49565   0.89460   1.000
    N36     N    0.93162   0.06292   0.55939   1.000
    O37     O    0.94440   0.02599   0.53889   1.000
    O38     O    0.90479   0.28860   0.81844   1.000
    N39     N    0.34826   0.50352   0.06298   1.000
    O40     O    0.36104   0.48612   0.02606   1.000
    O41     O    0.32140   0.46983   0.28836   1.000
    N42     N    0.84826   0.50352   0.06298   1.000
    O43     O    0.86104   0.48612   0.02606   1.000
    O44     O    0.82140   0.46983   0.28836   1.000
    N45     N    0.09825   0.49655   0.93702   1.000
    O46     O    0.11103   0.51395   0.97395   1.000
    O47     O    0.07142   0.53018   0.71169   1.000
    N48     N    0.76494   0.44051   0.50350   1.000
    O49     O    0.77772   0.45995   0.48604   1.000
    O50     O    0.73810   0.18151   0.47014   1.000
    N51     N    0.01495   0.55937   0.49647   1.000
    O52     O    0.02772   0.53995   0.51395   1.000
    O53     O    0.98810   0.81839   0.52880   1.000
    N54     N    0.43162   0.06292   0.55939   1.000
    O55     O    0.44440   0.02599   0.53989   1.000
    O56     O    0.40479   0.28860   0.81844   1.000
    N57     N    0.59825   0.49655   0.93702   1.000
    O58     O    0.61103   0.51395   0.97395   1.000
    O59     O    0.57142   0.53018   0.71169   1.000
    N60     N    0.26494   0.44051   0.50350   1.000
    O61     O    0.27771   0.45995   0.48604   1.000
    O62     O    0.23809   0.18151   0.47014   1.000
    N63     N    0.68162   0.93704   0.44050   1.000
    O64     O    0.69440   0.97397   0.46004   1.000
    O65     O    0.65483   0.71150   0.18154   1.000
    N66     N    0.18162   0.93704   0.44048   1.000
    O67     O    0.19439   0.97397   0.46003   1.000
    O68     O    0.15483   0.71150   0.18154   1.000
    N69     N    0.51495   0.55937   0.49647   1.000
    O70     O    0.52772   0.53995   0.51395   1.000
    O71     O    0.48810   0.81839   0.52980   1.000
    C72     C    0.41193   0.49927   0.53391   1.000
    O73     O    0.37314   0.48565   0.56363   1.000
    O74     O    0.45306   0.49260   0.55069   1.000
    O75     O    0.37822   0.50922   0.49963   1.000
    C76     C    0.91193   0.49927   0.53391   1.000
    O77     O    0.87314   0.48565   0.56361   1.000
    O78     O    0.95306   0.49260   0.55069   1.000
    O79     O    0.87823   0.50922   0.49963   1.000
    C80     C    0.66192   0.50064   0.46611   1.000
    O81     O    0.70305   0.50731   0.44932   1.000
    O82     O    0.62823   0.49070   0.50039   1.000
    O83     O    0.62313   0.51425   0.43637   1.000
    C84     C    0.16192   0.50064   0.46611   1.000
    O85     O    0.20305   0.50731   0.44932   1.000
    O86     O    0.12822   0.49070   0.50039   1.000
    O87     O    0.12313   0.51425   0.43637   1.000
    C88     C    0.74527   0.46614   0.96521   1.000
    O89     O    0.71157   0.50032   0.00953   1.000
    O90     O    0.78640   0.44945   0.94177   1.000
    O91     O    0.70646   0.43644   0.92184   1.000
    C92     C    0.99528   0.53394   0.03486   1.000
    O93     O    0.03641   0.55063   0.05829   1.000
    O94     O    0.96157   0.49976   0.99053   1.000
    O95     O    0.95647   0.56365   0.07818   1.000
    C96     C    0.24527   0.46614   0.96521   1.000
    O97     O    0.28640   0.44945   0.94177   1.000
    O98     O    0.21156   0.50031   0.00953   1.000
    O99     O    0.20646   0.43644   0.92184   1.000
    C100    C    0.49528   0.53394   0.03486   1.000
    O101    O    0.46156   0.49976   0.99053   1.000
    O102    O    0.45647   0.56365   0.07820   1.000
    O103    O    0.53641   0.55063   0.05829   1.000
    C104    C    0.82864   0.96524   0.49914   1.000
    O105    O    0.79493   0.00956   0.50927   1.000
    O106    O    0.78982   0.92190   0.48548   1.000
    O107    O    0.86976   0.94177   0.49139   1.000
    C108    C    0.32863   0.96524   0.49914   1.000
    O109    O    0.29492   0.00956   0.50927   1.000
    O110    O    0.28982   0.92190   0.48548   1.000
    O111    O    0.36976   0.94177   0.49238   1.000
    C112    C    0.07863   0.03472   0.50084   1.000
    O113    O    0.04492   0.99040   0.48973   1.000
    O114    O    0.03980   0.07803   0.51443   1.000
    O115    O    0.11975   0.05819   0.50760   1.000
    C116    C    0.57863   0.03472   0.50083   1.000
    O117    O    0.54493   0.99040   0.49071   1.000
    O118    O    0.61976   0.05819   0.50760   1.000
    O119    O    0.53981   0.07803   0.51443   1.000
loop_
    _geom_bond_atom_site_label_1
    _geom_bond_atom_site_label_2
    _geom_bond_distance
    _geom_bond_site_symmetry_2
    _ccdc_geom_bond_type
    Zr3    O24       1.19247      .   S
    Zr15   O24       1.19247      .   S
    Zr2    O25       1.19247      .   S
    Zr14   O25       1.19247      .   S
    Zr12   O26       1.19883      .   S
    Zr0    O26       1.19883      .   S
    Zr13   O27       1.16584      .   S
    Zr1    O27       1.16584      .   S
    Zr4    O28       1.19245      .   S
    Zr16   O28       1.19245      .   S
    Zr5    O29       1.19246      .   S
    Zr17   O29       1.19246      .   S
    Zr23   O30       1.19245      .   S
    Zr11   O30       1.19245      .   S
    Zr22   O31       1.19245      .   S
    Zr10   O31       1.19245      .   S
    Zr6    O32       1.19225      .   S
    Zr18   O32       1.19225      .   S
    Zr7    O33       1.19226      .   S
    Zr19   O33       1.19226      .   S
    Zr20   O34       1.19250      .   S
    Zr8    O34       1.19250      .   S
    Zr21   O35       1.19250      .   S
    Zr9    O35       1.19250      .   S
    N36    O37       0.63737      .   S
    Zr1    O37       1.67069  1_565   S
    N36    O38       4.43951      .   S
    Zr9    O38       2.61680      .   S
    N39    O40       0.63665      .   S
    Zr8    O40       1.66107  1_556   S
    N39    O41       4.44199      .   S
    Zr4    O41       2.61706      .   S
    N42    O43       0.63665      .   S
    Zr9    O43       1.66107  1_556   S
    N42    O44       4.44198      .   S
    Zr5    O44       2.61706      .   S
    N45    O46       0.63667      .   S
    Zr2    O46       1.66159  1_554   S
    N45    O47       4.44039      .   S
    Zr10   O47       2.61697      .   S
    N48    O49       0.63660      .   S
    Zr5    O49       1.66137      .   S
    N48    O50       4.44156      .   S
    Zr7    O50       2.61710      .   S
    N51    O52       0.63655      .   S
    Zr10   O52       1.66127      .   S
    N51    O53       4.44929  1_455   S
    Zr1    O53       2.65774      .   S
    N54    O55       0.63660      .   S
    Zr0    O55       1.66130  1_565   S
    N54    O56       4.43953      .   S
    Zr8    O56       2.61679      .   S
    N57    O58       0.63667      .   S
    Zr3    O58       1.66159  1_554   S
    N57    O59       4.44038      .   S
    Zr11   O59       2.61698      .   S
    N60    O61       0.63660      .   S
    Zr4    O61       1.66138      .   S
    N60    O62       4.44154      .   S
    Zr6    O62       2.61713      .   S
    N63    O64       0.63662      .   S
    Zr7    O64       1.66130  1_545   S
    N63    O65       4.43734      .   S
    Zr3    O65       2.61687      .   S
    N66    O67       0.63663      .   S
    Zr6    O67       1.66133  1_545   S
    N66    O68       4.43712      .   S
    Zr2    O68       2.61687      .   S
    N69    O70       0.63656      .   S
    Zr11   O70       1.66127      .   S
    N69    O71       4.44220      .   S
    Zr0    O71       2.61712      .   S
    C72    O73       1.06907      .   S
    N60    O73       2.47108      .   S
    C72    O74       0.94194      .   S
    Zr11   O74       1.94348      .   S
    C72    O75       1.01313      .   S
    Zr4    O75       2.06897      .   S
    C76    O77       1.06882      .   S
    N48    O77       2.47096      .   S
    C76    O78       0.94191      .   S
    Zr10   O78       1.94339  1_455   S
    C76    O79       1.01313      .   S
    Zr5    O79       2.06897      .   S
    C80    O81       0.94192      .   S
    Zr5    O81       1.94346      .   S
    C80    O82       1.01313      .   S
    Zr11   O82       2.06896      .   S
    C80    O83       1.06904      .   S
    N69    O83       2.47100      .   S
    C84    O85       0.94192      .   S
    Zr4    O85       1.94346      .   S
    C84    O86       1.01313      .   S
    Zr10   O86       2.06895      .   S
    C84    O87       1.06903      .   S
    N51    O87       2.47092      .   S
    C88    O89       1.01320  1_556   S
    Zr3    O89       2.06899      .   S
    C88    O90       0.94157      .   S
    Zr9    O90       1.94269      .   S
    C88    O91       1.06892      .   S
    N57    O91       2.47130      .   S
    C92    O93       0.94151  1_655   S
    Zr2    O93       1.94261      .   S
    C92    O94       1.01324  1_554   S
    Zr9    O94       2.06913      .   S
    C92    O95       1.06876      .   S
    N42    O95       2.47111      .   S
    C96    O97       0.94157      .   S
    Zr8    O97       1.94269      .   S
    C96    O98       1.01320  1_556   S
    Zr2    O98       2.06899      .   S
    C96    O99       1.06891      .   S
    N45    O99       2.47129      .   S
    C100   O101      1.01326  1_554   S
    Zr8    O101      2.06914      .   S
    C100   O102      1.06895      .   S
    N39    O102      2.47109      .   S
    C100   O103      0.94155      .   S
    Zr3    O103      1.94266      .   S
    C104   O105      1.01356  1_565   S
    Zr7    O105      2.06994      .   S
    C104   O106      1.06904      .   S
    N63    O106      2.47123      .   S
    C104   O107      0.94016      .   S
    Zr1    O107      1.94822      .   S
    C108   O109      1.01356  1_565   S
    Zr6    O109      2.06993      .   S
    C108   O110      1.06904      .   S
    N66    O110      2.47137      .   S
    C108   O111      0.94171      .   S
    Zr0    O111      1.94285      .   S
    C112   O113      1.00975  1_545   S
    Zr1    O113      2.06253  1_655   S
    C112   O114      1.06906      .   S
    N36    O114      2.47085  1_655   S
    C112   O115      0.94164      .   S
    Zr6    O115      1.94275      .   S
    C116   O117      1.01349  1_545   S
    Zr0    O117      2.06989      .   S
    C116   O118      0.94163      .   S
    Zr7    O118      1.94275      .   S
    C116   O119      1.06905      .   S
    N54    O119      2.47092      .   S
