# CIF file generated by openbabel 2.4.90, see http://openbabel.sf.net
data_I
_chemical_name_common ''
_cell_length_a 20.975
_cell_length_b 18.056
_cell_length_c 18.058
_cell_angle_alpha 120.058
_cell_angle_beta 90.008
_cell_angle_gamma 90.002
_space_group_name_H-M_alt 'P 1'
_space_group_name_Hall 'P 1'
loop_
    _symmetry_equiv_pos_as_xyz
    x,y,z
loop_
    _atom_site_label
    _atom_site_type_symbol
    _atom_site_fract_x
    _atom_site_fract_y
    _atom_site_fract_z
    _atom_site_occupancy
    Zr0     Zr   0.46103   0.92342   0.47399   1.000
    Zr1     Zr   0.96103   0.92342   0.47000   1.000
    Zr2     Zr   0.12769   0.55051   0.07647   1.000
    Zr3     Zr   0.62769   0.55051   0.07647   1.000
    Zr4     Zr   0.29434   0.52569   0.44929   1.000
    Zr5     Zr   0.79435   0.52569   0.44929   1.000
    Zr6     Zr   0.21102   0.07653   0.52601   1.000
    Zr7     Zr   0.71102   0.07653   0.52601   1.000
    Zr8     Zr   0.37767   0.44956   0.92357   1.000
    Zr9     Zr   0.87767   0.44956   0.92357   1.000
    Zr10    Zr   0.04435   0.47425   0.55074   1.000
    Zr11    Zr   0.54436   0.47425   0.55074   1.000
    Zr12    Zr   0.06374   0.04863   0.51256   1.000
    Zr13    Zr   0.56375   0.04863   0.51256   1.000
    Zr14    Zr   0.23039   0.46399   0.95130   1.000
    Zr15    Zr   0.73039   0.46399   0.95130   1.000
    Zr16    Zr   0.39705   0.48754   0.53609   1.000
    Zr17    Zr   0.89705   0.48754   0.53609   1.000
    Zr18    Zr   0.31376   0.95133   0.48739   1.000
    Zr19    Zr   0.81376   0.95133   0.48739   1.000
    Zr20    Zr   0.48040   0.53611   0.04876   1.000
    Zr21    Zr   0.98040   0.53611   0.04876   1.000
    Zr22    Zr   0.14705   0.51237   0.46392   1.000
    Zr23    Zr   0.64705   0.51237   0.46392   1.000
    Zr24    Zr   0.44755   0.86529   0.32300   1.000
    Zr25    Zr   0.94755   0.86529   0.32300   1.000
    Zr26    Zr   0.11416   0.45836   0.13442   1.000
    Zr27    Zr   0.61416   0.45836   0.13442   1.000
    Zr28    Zr   0.28077   0.67596   0.54128   1.000
    Zr29    Zr   0.78078   0.67596   0.54128   1.000
    Zr30    Zr   0.19753   0.13467   0.67620   1.000
    Zr31    Zr   0.69754   0.13466   0.67620   1.000
    Zr32    Zr   0.36416   0.54173   0.86564   1.000
    Zr33    Zr   0.86416   0.54173   0.86564   1.000
    Zr34    Zr   0.03077   0.32397   0.45875   1.000
    Zr35    Zr   0.53077   0.32397   0.45875   1.000
    Zr36    Zr   0.06141   0.96873   0.48723   1.000
    Zr37    Zr   0.56141   0.96873   0.48720   1.000
    Zr38    Zr   0.11074   0.08680   0.50272   1.000
    Zr39    Zr   0.61074   0.08680   0.50272   1.000
    Zr40    Zr   0.22803   0.51848   0.03124   1.000
    Zr41    Zr   0.72803   0.51848   0.03124   1.000
    Zr42    Zr   0.27738   0.41595   0.91309   1.000
    Zr43    Zr   0.77739   0.41595   0.91309   1.000
    Zr44    Zr   0.39470   0.51265   0.48142   1.000
    Zr45    Zr   0.89470   0.51266   0.48142   1.000
    Zr46    Zr   0.44403   0.49762   0.58422   1.000
    Zr47    Zr   0.94403   0.49762   0.58422   1.000
    Zr48    Zr   0.31141   0.03124   0.51278   1.000
    Zr49    Zr   0.81141   0.03124   0.51278   1.000
    Zr50    Zr   0.36074   0.91316   0.49726   1.000
    Zr51    Zr   0.86074   0.91316   0.49726   1.000
    Zr52    Zr   0.47803   0.48159   0.96883   1.000
    Zr53    Zr   0.97803   0.48159   0.96883   1.000
    Zr54    Zr   0.02741   0.58413   0.08698   1.000
    Zr55    Zr   0.52741   0.58413   0.08698   1.000
    Zr56    Zr   0.14470   0.48728   0.51861   1.000
    Zr57    Zr   0.64471   0.48728   0.51861   1.000
    Zr58    Zr   0.19401   0.50228   0.41579   1.000
    Zr59    Zr   0.69402   0.50228   0.41579   1.000
    O60     O    0.67786   0.53449   0.05385   1.000
    O61     O    0.72921   0.49123   0.99127   1.000
    O62     O    0.17786   0.53449   0.05385   1.000
    O63     O    0.22921   0.49123   0.99127   1.000
    O64     O    0.00390   0.56012   0.06787   1.000
    O65     O    0.97922   0.50885   0.00879   1.000
    O66     O    0.50390   0.56012   0.06787   1.000
    O67     O    0.47921   0.50885   0.00879   1.000
    O68     O    0.57755   0.56732   0.08172   1.000
    O69     O    0.62093   0.50444   0.10544   1.000
    O70     O    0.07755   0.56732   0.08172   1.000
    O71     O    0.12092   0.50444   0.10544   1.000
    O72     O    0.45429   0.89436   0.39849   1.000
    O73     O    0.95429   0.89436   0.39650   1.000
    O74     O    0.24418   0.51398   0.43254   1.000
    O75     O    0.17053   0.50732   0.43985   1.000
    O76     O    0.74418   0.51398   0.43254   1.000
    O77     O    0.67053   0.50732   0.43985   1.000
    O78     O    0.34452   0.51917   0.46535   1.000
    O79     O    0.28756   0.60082   0.49528   1.000
    O80     O    0.84452   0.51917   0.46535   1.000
    O81     O    0.78756   0.60082   0.49528   1.000
    O82     O    0.53756   0.39911   0.50474   1.000
    O83     O    0.03756   0.39911   0.50474   1.000
    O84     O    0.14587   0.49982   0.49126   1.000
    O85     O    0.64588   0.49982   0.49126   1.000
    O86     O    0.01122   0.94607   0.47861   1.000
    O87     O    0.91089   0.91829   0.48363   1.000
    O88     O    0.51122   0.94607   0.48059   1.000
    O89     O    0.41088   0.91829   0.48562   1.000
    O90     O    0.39587   0.50010   0.50875   1.000
    O91     O    0.89588   0.50010   0.50875   1.000
    O92     O    0.56258   0.00868   0.49988   1.000
    O93     O    0.06258   0.00868   0.49989   1.000
    O94     O    0.83725   0.93224   0.49232   1.000
    O95     O    0.81259   0.99128   0.50008   1.000
    O96     O    0.33725   0.93224   0.49232   1.000
    O97     O    0.31258   0.99129   0.50008   1.000
    O98     O    0.08724   0.06772   0.50764   1.000
    O99     O    0.16088   0.08167   0.51436   1.000
    O100    O    0.58724   0.06772   0.50764   1.000
    O101    O    0.66088   0.08167   0.51436   1.000
    O102    O    0.76122   0.05389   0.51939   1.000
    O103    O    0.26121   0.05389   0.51939   1.000
    O104    O    0.59453   0.48076   0.53468   1.000
    O105    O    0.09453   0.48076   0.53468   1.000
    O106    O    0.20428   0.10560   0.60110   1.000
    O107    O    0.70428   0.10560   0.60110   1.000
    O108    O    0.92054   0.49258   0.56015   1.000
    O109    O    0.42054   0.49258   0.56015   1.000
    O110    O    0.49419   0.48593   0.56748   1.000
    O111    O    0.99419   0.48594   0.56748   1.000
    O112    O    0.37091   0.49565   0.89460   1.000
    O113    O    0.87092   0.49565   0.89460   1.000
    O114    O    0.82753   0.43275   0.91833   1.000
    O115    O    0.75389   0.43997   0.93219   1.000
    O116    O    0.32753   0.43275   0.91833   1.000
    O117    O    0.25389   0.43997   0.93219   1.000
    O118    O    0.42785   0.46558   0.94620   1.000
    O119    O    0.92785   0.46558   0.94620   1.000
    N120    N    0.93162   0.06292   0.55939   1.000
    O121    O    0.94440   0.02599   0.53889   1.000
    O122    O    0.00098   0.12134   0.52802   1.000
    O123    O    0.90479   0.28860   0.81844   1.000
    N124    N    0.34826   0.50352   0.06298   1.000
    O125    O    0.36104   0.48612   0.02606   1.000
    O126    O    0.41765   0.59336   0.12154   1.000
    O127    O    0.32140   0.46983   0.28836   1.000
    N128    N    0.84826   0.50352   0.06298   1.000
    O129    O    0.86104   0.48612   0.02606   1.000
    O130    O    0.91766   0.59336   0.12150   1.000
    O131    O    0.82140   0.46983   0.28836   1.000
    N132    N    0.09825   0.49655   0.93702   1.000
    O133    O    0.11103   0.51395   0.97395   1.000
    O134    O    0.16765   0.40673   0.87848   1.000
    O135    O    0.07142   0.53018   0.71169   1.000
    N136    N    0.76494   0.44051   0.50350   1.000
    O137    O    0.77772   0.45995   0.48604   1.000
    O138    O    0.83435   0.47203   0.59331   1.000
    O139    O    0.73810   0.18151   0.47014   1.000
    N140    N    0.01495   0.55937   0.49647   1.000
    O141    O    0.02772   0.53995   0.51395   1.000
    O142    O    0.08433   0.52786   0.40664   1.000
    O143    O    0.98810   0.81839   0.52880   1.000
    N144    N    0.43162   0.06292   0.55939   1.000
    O145    O    0.44440   0.02599   0.53989   1.000
    O146    O    0.50098   0.12134   0.52803   1.000
    O147    O    0.40479   0.28860   0.81844   1.000
    N148    N    0.59825   0.49655   0.93702   1.000
    O149    O    0.61103   0.51395   0.97395   1.000
    O150    O    0.66765   0.40674   0.87847   1.000
    O151    O    0.57142   0.53018   0.71169   1.000
    N152    N    0.26494   0.44051   0.50350   1.000
    O153    O    0.27771   0.45995   0.48604   1.000
    O154    O    0.33435   0.47203   0.59336   1.000
    O155    O    0.23809   0.18151   0.47014   1.000
    N156    N    0.68162   0.93704   0.44050   1.000
    O157    O    0.69440   0.97397   0.46004   1.000
    O158    O    0.75100   0.87855   0.47182   1.000
    O159    O    0.65483   0.71150   0.18154   1.000
    N160    N    0.18162   0.93704   0.44048   1.000
    O161    O    0.19439   0.97397   0.46003   1.000
    O162    O    0.25100   0.87855   0.47182   1.000
    O163    O    0.15483   0.71150   0.18154   1.000
    N164    N    0.51495   0.55937   0.49647   1.000
    O165    O    0.52772   0.53995   0.51395   1.000
    O166    O    0.58434   0.52786   0.40664   1.000
    O167    O    0.48810   0.81839   0.52980   1.000
loop_
    _geom_bond_atom_site_label_1
    _geom_bond_atom_site_label_2
    _geom_bond_distance
    _geom_bond_site_symmetry_2
    _ccdc_geom_bond_type
    Zr41   O60       1.11339      .   S
    Zr3    O60       1.11339      .   S
    Zr41   O61       0.63866  1_554   S
    Zr15   O61       0.63866      .   S
    Zr40   O62       1.11339      .   S
    Zr2    O62       1.11339      .   S
    Zr40   O63       0.63866  1_554   S
    Zr14   O63       0.63866      .   S
    Zr21   O64       0.63255  1_655   S
    Zr54   O64       0.63255      .   S
    Zr21   O65       0.63865      .   S
    Zr53   O65       0.63865  1_556   S
    Zr20   O66       0.63260      .   S
    Zr55   O66       0.63260      .   S
    Zr20   O67       0.63865      .   S
    Zr52   O67       0.63865  1_556   S
    Zr3    O68       1.08557      .   S
    Zr55   O68       1.08557      .   S
    Zr3    O69       1.19247      .   S
    Zr27   O69       1.19247      .   S
    Zr2    O70       1.08557      .   S
    Zr54   O70       1.08557      .   S
    Zr2    O71       1.19247      .   S
    Zr26   O71       1.19247      .   S
    Zr24   O72       1.19883      .   S
    Zr0    O72       1.19883      .   S
    Zr25   O73       1.16584      .   S
    Zr1    O73       1.16584      .   S
    Zr58   O74       1.08589      .   S
    Zr4    O74       1.08589      .   S
    Zr58   O75       0.63260      .   S
    Zr22   O75       0.63260      .   S
    Zr59   O76       1.08589      .   S
    Zr5    O76       1.08589      .   S
    Zr59   O77       0.63260      .   S
    Zr23   O77       0.63260      .   S
    Zr4    O78       1.11347      .   S
    Zr44   O78       1.11347      .   S
    Zr4    O79       1.19245      .   S
    Zr28   O79       1.19245      .   S
    Zr5    O80       1.11347      .   S
    Zr45   O80       1.11347      .   S
    Zr5    O81       1.19246      .   S
    Zr29   O81       1.19246      .   S
    Zr35   O82       1.19245      .   S
    Zr11   O82       1.19245      .   S
    Zr34   O83       1.19245      .   S
    Zr10   O83       1.19245      .   S
    Zr22   O84       0.63862      .   S
    Zr56   O84       0.63862      .   S
    Zr23   O85       0.63862      .   S
    Zr57   O85       0.63862      .   S
    Zr1    O86       1.11173  1_655   S
    Zr36   O86       1.11173      .   S
    Zr1    O87       1.09465      .   S
    Zr51   O87       1.09465      .   S
    Zr0    O88       1.11400      .   S
    Zr37   O88       1.11400      .   S
    Zr0    O89       1.08557      .   S
    Zr50   O89       1.08557      .   S
    Zr44   O90       0.63856      .   S
    Zr16   O90       0.63856      .   S
    Zr45   O91       0.63856      .   S
    Zr17   O91       0.63856      .   S
    Zr37   O92       0.63869  1_565   S
    Zr13   O92       0.63869      .   S
    Zr36   O93       0.63875  1_565   S
    Zr12   O93       0.63875      .   S
    Zr19   O94       0.63262      .   S
    Zr51   O94       0.63262      .   S
    Zr19   O95       0.63875      .   S
    Zr49   O95       0.63875  1_545   S
    Zr18   O96       0.63262      .   S
    Zr50   O96       0.63262      .   S
    Zr18   O97       0.63875      .   S
    Zr48   O97       0.63875  1_545   S
    Zr38   O98       0.63263      .   S
    Zr12   O98       0.63263      .   S
    Zr38   O99       1.08557      .   S
    Zr6    O99       1.08557      .   S
    Zr39   O100      0.63263      .   S
    Zr13   O100      0.63263      .   S
    Zr39   O101      1.08557      .   S
    Zr7    O101      1.08557      .   S
    Zr49   O102      1.11398      .   S
    Zr7    O102      1.11398      .   S
    Zr48   O103      1.11398      .   S
    Zr6    O103      1.11398      .   S
    Zr57   O104      1.11346      .   S
    Zr11   O104      1.11346      .   S
    Zr56   O105      1.11346      .   S
    Zr10   O105      1.11346      .   S
    Zr6    O106      1.19225      .   S
    Zr30   O106      1.19225      .   S
    Zr7    O107      1.19226      .   S
    Zr31   O107      1.19226      .   S
    Zr17   O108      0.63263      .   S
    Zr47   O108      0.63263      .   S
    Zr16   O109      0.63264      .   S
    Zr46   O109      0.63264      .   S
    Zr11   O110      1.08588      .   S
    Zr46   O110      1.08588      .   S
    Zr10   O111      1.08582  1_455   S
    Zr47   O111      1.08582      .   S
    Zr32   O112      1.19250      .   S
    Zr8    O112      1.19250      .   S
    Zr33   O113      1.19250      .   S
    Zr9    O113      1.19250      .   S
    Zr43   O114      1.08557      .   S
    Zr9    O114      1.08557      .   S
    Zr43   O115      0.63261      .   S
    Zr15   O115      0.63261      .   S
    Zr42   O116      1.08557      .   S
    Zr8    O116      1.08557      .   S
    Zr42   O117      0.63261      .   S
    Zr14   O117      0.63261      .   S
    Zr8    O118      1.11347      .   S
    Zr52   O118      1.11347      .   S
    Zr9    O119      1.11348      .   S
    Zr53   O119      1.11348      .   S
    N120   O121      0.63737      .   S
    Zr1    O121      1.67069  1_565   S
    N120   O122      2.03689  1_655   S
    Zr12   O122      1.77992      .   S
    N120   O123      4.43951      .   S
    Zr9    O123      2.61680      .   S
    N124   O125      0.63665      .   S
    Zr8    O125      1.66107  1_556   S
    N124   O126      2.03696      .   S
    Zr20   O126      1.77970      .   S
    N124   O127      4.44199      .   S
    Zr4    O127      2.61706      .   S
    N128   O129      0.63665      .   S
    Zr9    O129      1.66107  1_556   S
    N128   O130      2.03687      .   S
    Zr21   O130      1.77939      .   S
    N128   O131      4.44198      .   S
    Zr5    O131      2.61706      .   S
    N132   O133      0.63667      .   S
    Zr2    O133      1.66159  1_554   S
    N132   O134      2.03713      .   S
    Zr14   O134      1.77970      .   S
    N132   O135      4.44039      .   S
    Zr10   O135      2.61697      .   S
    N136   O137      0.63660      .   S
    Zr5    O137      1.66137      .   S
    N136   O138      2.03666      .   S
    Zr17   O138      1.77941      .   S
    N136   O139      4.44156      .   S
    Zr7    O139      2.61710      .   S
    N140   O141      0.63655      .   S
    Zr10   O141      1.66127      .   S
    N140   O142      2.03705      .   S
    Zr22   O142      1.77983      .   S
    N140   O143      4.44929  1_455   S
    Zr1    O143      2.65774      .   S
    N144   O145      0.63660      .   S
    Zr0    O145      1.66130  1_565   S
    N144   O146      2.03679      .   S
    Zr13   O146      1.77990      .   S
    N144   O147      4.43953      .   S
    Zr8    O147      2.61679      .   S
    N148   O149      0.63667      .   S
    Zr3    O149      1.66159  1_554   S
    N148   O150      2.03714      .   S
    Zr15   O150      1.77973      .   S
    N148   O151      4.44038      .   S
    Zr11   O151      2.61698      .   S
    N152   O153      0.63660      .   S
    Zr4    O153      1.66138      .   S
    N152   O154      2.03721      .   S
    Zr16   O154      1.77995      .   S
    N152   O155      4.44154      .   S
    Zr6    O155      2.61713      .   S
    N156   O157      0.63662      .   S
    Zr7    O157      1.66130  1_545   S
    N156   O158      2.03739      .   S
    Zr19   O158      1.77999      .   S
    N156   O159      4.43734      .   S
    Zr3    O159      2.61687      .   S
    N160   O161      0.63663      .   S
    Zr6    O161      1.66133  1_545   S
    N160   O162      2.03759      .   S
    Zr18   O162      1.78000      .   S
    N160   O163      4.43712      .   S
    Zr2    O163      2.61687      .   S
    N164   O165      0.63656      .   S
    Zr11   O165      1.66127      .   S
    N164   O166      2.03713      .   S
    Zr23   O166      1.77986      .   S
    N164   O167      4.44220      .   S
    Zr0    O167      2.61712      .   S
