# CIF file generated by openbabel 2.4.90, see http://openbabel.sf.net
data_I
_chemical_name_common ''
_cell_length_a 12.636
_cell_length_b 12.638
_cell_length_c 23.81
_cell_angle_alpha 81.895
_cell_angle_beta 81.878
_cell_angle_gamma 65.765
_space_group_name_H-M_alt 'P 1'
_space_group_name_Hall 'P 1'
loop_
    _symmetry_equiv_pos_as_xyz
    x,y,z
loop_
    _atom_site_label
    _atom_site_type_symbol
    _atom_site_fract_x
    _atom_site_fract_y
    _atom_site_fract_z
    _atom_site_occupancy
    Lv0     Lv   0.45278   0.71079   0.87164   1.000
    Lv1     Lv   0.71045   0.45496   0.37069   1.000
    Lv2     Lv   0.28953   0.54501   0.62928   1.000
    Lv3     Lv   0.24688   0.59709   0.03178   1.000
    Lv4     Lv   0.10572   0.89498   0.24986   1.000
    Lv5     Lv   0.89426   0.10499   0.75010   1.000
    Lv6     Lv   0.54720   0.28917   0.12822   1.000
    Lv7     Lv   0.40291   0.75311   0.46843   1.000
    Lv8     Lv   0.75309   0.40288   0.96793   1.000
    Lv9     Lv   0.59707   0.24685   0.53128   1.000
