# CIF file generated by openbabel 2.4.90, see http://openbabel.sf.net
data_I
_chemical_name_common ''
_cell_length_a 12.636
_cell_length_b 12.638
_cell_length_c 23.81
_cell_angle_alpha 81.895
_cell_angle_beta 81.878
_cell_angle_gamma 65.765
_space_group_name_H-M_alt 'P 1'
_space_group_name_Hall 'P 1'
loop_
    _symmetry_equiv_pos_as_xyz
    x,y,z
loop_
    _atom_site_label
    _atom_site_type_symbol
    _atom_site_fract_x
    _atom_site_fract_y
    _atom_site_fract_z
    _atom_site_occupancy
    Cd0     Cd   0.77806   0.63558   0.65014   1.000
    Cd1     Cd   0.63707   0.77841   0.14910   1.000
    Cd2     Cd   0.22190   0.36441   0.34983   1.000
    Cd3     Cd   0.36292   0.22155   0.85087   1.000
    C4      C    0.41060   0.35780   0.75367   1.000
    O5      O    0.49126   0.02263   0.86189   1.000
    O6      O    0.34275   0.06261   0.93065   1.000
    O7      O    0.55098   0.75364   0.23970   1.000
    O8      O    0.65948   0.57595   0.21027   1.000
    O9      O    0.02280   0.49346   0.36082   1.000
    C10     C    0.00700   0.56128   0.59460   1.000
    C11     C    0.64034   0.58935   0.74727   1.000
    C12     C    0.43674   0.99288   0.90649   1.000
    C13     C    0.58938   0.64215   0.24600   1.000
    C14     C    0.99295   0.43878   0.40532   1.000
    C15     C    0.35963   0.41059   0.25269   1.000
    C16     C    0.56324   0.00708   0.09348   1.000
    O17     O    0.44902   0.24630   0.76020   1.000
    O18     O    0.34050   0.42399   0.78969   1.000
    O19     O    0.97714   0.50665   0.63916   1.000
    O20     O    0.93730   0.65533   0.57054   1.000
    O21     O    0.75189   0.55068   0.74083   1.000
    O22     O    0.57451   0.65941   0.71114   1.000
    O23     O    0.06267   0.34470   0.42940   1.000
    O24     O    0.24808   0.44929   0.25914   1.000
    O25     O    0.42546   0.34052   0.28882   1.000
    O26     O    0.50872   0.97733   0.13808   1.000
    O27     O    0.65722   0.93734   0.06931   1.000
    Ts28    Ts   0.73433   0.67691   0.62704   1.000
    Ts29    Ts   0.77632   0.69396   0.66095   1.000
    Ts30    Ts   0.76756   0.58499   0.63570   1.000
    Ts31    Ts   0.58638   0.76780   0.13480   1.000
    Ts32    Ts   0.67824   0.73455   0.12606   1.000
    Ts33    Ts   0.69540   0.77663   0.16000   1.000
    Ts34    Ts   0.23240   0.41500   0.36425   1.000
    Ts35    Ts   0.26563   0.32307   0.37293   1.000
    Ts36    Ts   0.22364   0.30603   0.33902   1.000
    Ts37    Ts   0.32173   0.26541   0.87391   1.000
    Ts38    Ts   0.30458   0.22333   0.83996   1.000
    Ts39    Ts   0.41359   0.23215   0.86517   1.000
    Og40    Og   0.42586   0.37553   0.73534   1.000
    Og41    Og   0.04974   0.54433   0.58662   1.000
    Og42    Og   0.62245   0.57420   0.76557   1.000
    Og43    Og   0.45367   0.95016   0.91449   1.000
    Og44    Og   0.57413   0.62442   0.26443   1.000
    Og45    Og   0.95021   0.45570   0.41332   1.000
    Og46    Og   0.37752   0.42574   0.23413   1.000
    Og47    Og   0.54631   0.04980   0.08548   1.000
loop_
    _geom_bond_atom_site_label_1
    _geom_bond_atom_site_label_2
    _geom_bond_distance
    _geom_bond_site_symmetry_2
    _ccdc_geom_bond_type
    O27    C16       1.26843  1_565   S
    C16    O26       1.27939  1_545   S
    O26    Cd1       2.36771      .   S
    Cd1    O7        2.31536      .   S
    O8     C13       1.26003      .   S
    O7     C13       1.28182      .   S
    C15    O24       1.28208      .   S
    C15    O25       1.26446      .   S
    O24    Cd2       2.31498      .   S
    Cd2    O9        2.37138      .   S
    O9     C14       1.27951  1_455   S
    C14    O23       1.26849  1_655   S
    O20    C10       1.26803  1_655   S
    C10    O19       1.28021  1_455   S
    O19    Cd0       2.37079      .   S
    Cd0    O21       2.31506      .   S
    O22    C11       1.26441      .   S
    O21    C11       1.28206      .   S
    C4     O17       1.28191      .   S
    C4     O18       1.26464      .   S
    O17    Cd3       2.31681      .   S
    Cd3    O5        2.36763      .   S
    O5     C12       1.27946  1_545   S
    C12    O6        1.26833  1_565   S
    Cd0    Ts28      0.80531      .   S
    Cd0    Ts29      0.80610      .   S
    Cd0    Ts30      0.83011      .   S
    Cd1    Ts31      0.83004      .   S
    Cd1    Ts32      0.80460      .   S
    Cd1    Ts33      0.80624      .   S
    Cd2    Ts34      0.82985      .   S
    Cd2    Ts35      0.80538      .   S
    Cd2    Ts36      0.80614      .   S
    Cd3    Ts37      0.80457      .   S
    Cd3    Ts38      0.80626      .   S
    Cd3    Ts39      0.82998      .   S
    C4     Og40      0.51178      .   S
    C10    Og41      0.51100      .   S
    C11    Og42      0.51170      .   S
    C12    Og43      0.51112      .   S
    C13    Og44      0.51353      .   S
    C14    Og45      0.51109      .   S
    C15    Og46      0.51635      .   S
    C16    Og47      0.51113      .   S
