# CIF file generated by openbabel 2.4.90, see http://openbabel.sf.net
data_I
_chemical_name_common ''
_cell_length_a 12.636
_cell_length_b 12.638
_cell_length_c 23.81
_cell_angle_alpha 81.895
_cell_angle_beta 81.878
_cell_angle_gamma 65.765
_space_group_name_H-M_alt 'P 1'
_space_group_name_Hall 'P 1'
loop_
    _symmetry_equiv_pos_as_xyz
    x,y,z
loop_
    _atom_site_label
    _atom_site_type_symbol
    _atom_site_fract_x
    _atom_site_fract_y
    _atom_site_fract_z
    _atom_site_occupancy
    C0      C    0.36292   0.22155   0.85087   1.000
    C1      C    0.77806   0.63558   0.65014   1.000
    C2      C    0.63707   0.77841   0.14910   1.000
    C3      C    0.22190   0.36441   0.34983   1.000
    C4      C    0.51161   0.45105   0.71056   1.000
    C5      C    0.51251   0.33952   0.67288   1.000
    C6      C    0.39204   0.64747   0.68510   1.000
    C7      C    0.23732   0.79397   0.62729   1.000
    C8      C    0.12096   0.73045   0.57372   1.000
    C9      C    0.31078   0.37527   0.63724   1.000
    C10     C    0.16754   0.41498   0.57538   1.000
    C11     C    0.14058   0.54004   0.52509   1.000
    C12     C    0.19166   0.49630   0.86037   1.000
    C13     C    0.08812   0.64059   0.93276   1.000
    C14     C    0.18694   0.35270   0.06307   1.000
    C15     C    0.28120   0.21981   0.98480   1.000
    C16     C    0.03220   0.55329   0.08491   1.000
    C17     C    0.00908   0.67319   0.03303   1.000
    C18     C    0.12529   0.66780   0.11221   1.000
    C19     C    0.23608   0.53634   0.09075   1.000
    C20     C    0.15480   0.77147   0.01732   1.000
    C21     C    0.26312   0.64014   0.99385   1.000
    C22     C    0.21406   0.89432   0.06409   1.000
    C23     C    0.37106   0.91929   0.10770   1.000
    C24     C    0.58616   0.57023   0.10192   1.000
    C25     C    0.44201   0.53065   0.05722   1.000
    C26     C    0.16916   0.36833   0.75833   1.000
    C27     C    0.98384   0.38261   0.72718   1.000
    C28     C    0.00656   0.08723   0.84892   1.000
    C29     C    0.19062   0.08725   0.87576   1.000
    C30     C    0.79817   0.26536   0.80507   1.000
    C31     C    0.83374   0.31118   0.73447   1.000
    C32     C    0.89964   0.05596   0.78571   1.000
    C33     C    0.54623   0.48910   0.79017   1.000
    C34     C    0.65795   0.48738   0.82800   1.000
    C35     C    0.35018   0.60900   0.81548   1.000
    C36     C    0.20371   0.76375   0.87336   1.000
    C37     C    0.26749   0.87945   0.92723   1.000
    C38     C    0.62280   0.68882   0.86398   1.000
    C39     C    0.58301   0.83233   0.92584   1.000
    C40     C    0.45775   0.85940   0.97601   1.000
    C41     C    0.50381   0.80770   0.64053   1.000
    C42     C    0.35948   0.91184   0.56825   1.000
    C43     C    0.64721   0.81245   0.43780   1.000
    C44     C    0.78015   0.71747   0.51590   1.000
    C45     C    0.44640   0.96813   0.41620   1.000
    C46     C    0.32659   0.99060   0.46815   1.000
    C47     C    0.33215   0.87513   0.38859   1.000
    C48     C    0.46371   0.76429   0.40988   1.000
    C49     C    0.22860   0.84473   0.48344   1.000
    C50     C    0.36004   0.73618   0.50664   1.000
    C51     C    0.10553   0.78604   0.43655   1.000
    C52     C    0.08056   0.62997   0.39214   1.000
    C53     C    0.42992   0.41514   0.39000   1.000
    C54     C    0.46959   0.55844   0.44234   1.000
    C55     C    0.63201   0.82935   0.74280   1.000
    C56     C    0.61725   0.01537   0.77331   1.000
    C57     C    0.91127   0.99304   0.65060   1.000
    C58     C    0.91175   0.80822   0.62442   1.000
    C59     C    0.73603   0.20044   0.69410   1.000
    C60     C    0.68699   0.16716   0.76451   1.000
    C61     C    0.94424   0.09675   0.71565   1.000
    C62     C    0.48837   0.54890   0.28941   1.000
    C63     C    0.48747   0.66044   0.32708   1.000
    C64     C    0.60794   0.35249   0.31487   1.000
    C65     C    0.76267   0.20600   0.37269   1.000
    C66     C    0.87902   0.26953   0.42625   1.000
    C67     C    0.68919   0.62471   0.36272   1.000
    C68     C    0.83238   0.58501   0.42461   1.000
    C69     C    0.85940   0.45992   0.47488   1.000
    C70     C    0.80831   0.50366   0.13950   1.000
    C71     C    0.91185   0.35938   0.06719   1.000
    C72     C    0.81303   0.64727   0.93689   1.000
    C73     C    0.71877   0.78016   0.01510   1.000
    C74     C    0.96776   0.44668   0.91504   1.000
    C75     C    0.99089   0.32678   0.96690   1.000
    C76     C    0.87467   0.33218   0.88775   1.000
    C77     C    0.76388   0.46363   0.90921   1.000
    C78     C    0.84517   0.22850   0.98264   1.000
    C79     C    0.73686   0.35982   0.00000   1.000
    C80     C    0.78591   0.10564   0.93587   1.000
    C81     C    0.62891   0.08067   0.89226   1.000
    C82     C    0.41381   0.42973   0.89805   1.000
    C83     C    0.55796   0.46932   0.94274   1.000
    C84     C    0.83085   0.63161   0.24162   1.000
    C85     C    0.01614   0.61736   0.27270   1.000
    C86     C    0.99339   0.91276   0.15105   1.000
    C87     C    0.80934   0.91271   0.12421   1.000
    C88     C    0.20181   0.73461   0.19490   1.000
    C89     C    0.16622   0.68881   0.26550   1.000
    C90     C    0.10035   0.94402   0.21425   1.000
    C91     C    0.45375   0.51084   0.20900   1.000
    C92     C    0.34203   0.51258   0.17197   1.000
    C93     C    0.64980   0.39095   0.18448   1.000
    C94     C    0.79627   0.23621   0.12659   1.000
    C95     C    0.73248   0.12051   0.07273   1.000
    C96     C    0.37718   0.31113   0.13599   1.000
    C97     C    0.41696   0.16762   0.07412   1.000
    C98     C    0.54222   0.14056   0.02395   1.000
    C99     C    0.49616   0.19226   0.35943   1.000
    C100    C    0.64050   0.08811   0.43171   1.000
    C101    C    0.35279   0.18750   0.56217   1.000
    C102    C    0.21984   0.28248   0.48400   1.000
    C103    C    0.55361   0.03181   0.58373   1.000
    C104    C    0.67341   0.00936   0.53180   1.000
    C105    C    0.66786   0.12481   0.61137   1.000
    C106    C    0.53629   0.23565   0.59009   1.000
    C107    C    0.77138   0.15525   0.51651   1.000
    C108    C    0.63993   0.26380   0.49330   1.000
    C109    C    0.89446   0.21392   0.56340   1.000
    C110    C    0.91942   0.36999   0.60783   1.000
    C111    C    0.57006   0.58483   0.60296   1.000
    C112    C    0.53039   0.44153   0.55761   1.000
    C113    C    0.36796   0.17063   0.25716   1.000
    C114    C    0.38272   0.98460   0.22660   1.000
    C115    C    0.08872   0.00692   0.34930   1.000
    C116    C    0.08823   0.19175   0.37555   1.000
    C117    C    0.26393   0.79953   0.30587   1.000
    C118    C    0.31298   0.83280   0.23546   1.000
    C119    C    0.05572   0.90324   0.28431   1.000
    C120    C    0.41060   0.35780   0.75367   1.000
    C121    C    0.45637   0.41100   0.69869   1.000
    C122    C    0.36202   0.50153   0.66472   1.000
    C123    C    0.34028   0.62001   0.66199   1.000
    C124    C    0.25376   0.70176   0.62928   1.000
    C125    C    0.18842   0.66670   0.59928   1.000
    C126    C    0.20809   0.54847   0.60189   1.000
    C127    C    0.29493   0.46752   0.63473   1.000
    C128    C    0.13521   0.51045   0.57065   1.000
    C129    C    0.00700   0.56128   0.59460   1.000
    C130    C    0.18613   0.46864   0.90582   1.000
    C131    C    0.13045   0.54800   0.94644   1.000
    C132    C    0.12969   0.50892   0.00400   1.000
    C133    C    0.18511   0.38850   0.01856   1.000
    C134    C    0.23790   0.31409   0.97569   1.000
    C135    C    0.07630   0.59154   0.05011   1.000
    C136    C    0.16759   0.61855   0.07497   1.000
    C137    C    0.22312   0.68788   0.03185   1.000
    C138    C    0.31441   0.70984   0.05666   1.000
    C139    C    0.29556   0.81973   0.07180   1.000
    C140    C    0.38208   0.83469   0.09600   1.000
    C141    C    0.50327   0.64042   0.09215   1.000
    C142    C    0.42183   0.61883   0.06735   1.000
    C143    C    0.13024   0.30731   0.77734   1.000
    C144    C    0.02636   0.31459   0.76002   1.000
    C145    C    0.97804   0.23530   0.78529   1.000
    C146    C    0.03911   0.15164   0.82749   1.000
    C147    C    0.14197   0.15028   0.84270   1.000
    C148    C    0.86498   0.24051   0.76855   1.000
    C149    C    0.64034   0.58935   0.74727   1.000
    C150    C    0.58666   0.54389   0.80217   1.000
    C151    C    0.49629   0.63834   0.83615   1.000
    C152    C    0.37771   0.66047   0.83875   1.000
    C153    C    0.29600   0.74700   0.87148   1.000
    C154    C    0.33119   0.81198   0.90164   1.000
    C155    C    0.44952   0.79195   0.89915   1.000
    C156    C    0.53046   0.70502   0.86634   1.000
    C157    C    0.48753   0.86471   0.93048   1.000
    C158    C    0.43674   0.99288   0.90649   1.000
    C159    C    0.53142   0.81321   0.59507   1.000
    C160    C    0.45204   0.86925   0.55451   1.000
    C161    C    0.49105   0.86997   0.49646   1.000
    C162    C    0.61146   0.81426   0.48230   1.000
    C163    C    0.68589   0.76106   0.52512   1.000
    C164    C    0.40831   0.92365   0.45091   1.000
    C165    C    0.38145   0.83258   0.42578   1.000
    C166    C    0.31220   0.77663   0.46871   1.000
    C167    C    0.29020   0.68577   0.44353   1.000
    C168    C    0.18019   0.70478   0.42848   1.000
    C169    C    0.16522   0.61877   0.40385   1.000
    C170    C    0.35968   0.49776   0.40714   1.000
    C171    C    0.38131   0.57871   0.43232   1.000
    C172    C    0.69268   0.86847   0.72346   1.000
    C173    C    0.68514   0.97272   0.74040   1.000
    C174    C    0.76395   0.02129   0.71470   1.000
    C175    C    0.84731   0.96019   0.67240   1.000
    C176    C    0.84896   0.85696   0.65750   1.000
    C177    C    0.75882   0.13456   0.73107   1.000
    C178    C    0.58938   0.64215   0.24600   1.000
    C179    C    0.54361   0.58895   0.30128   1.000
    C180    C    0.63796   0.49843   0.33524   1.000
    C181    C    0.65970   0.37995   0.33798   1.000
    C182    C    0.74623   0.29821   0.37069   1.000
    C183    C    0.81156   0.33328   0.40069   1.000
    C184    C    0.79189   0.45151   0.39807   1.000
    C185    C    0.70504   0.53245   0.36524   1.000
    C186    C    0.86475   0.48955   0.42932   1.000
    C187    C    0.99295   0.43878   0.40532   1.000
    C188    C    0.81384   0.53132   0.09413   1.000
    C189    C    0.86952   0.45197   0.05352   1.000
    C190    C    0.87028   0.49105   0.99546   1.000
    C191    C    0.81486   0.61147   0.98100   1.000
    C192    C    0.76207   0.68588   0.02427   1.000
    C193    C    0.92367   0.40843   0.94985   1.000
    C194    C    0.83237   0.38142   0.92499   1.000
    C195    C    0.77686   0.31209   0.96811   1.000
    C196    C    0.68556   0.29012   0.94330   1.000
    C197    C    0.70441   0.18023   0.92816   1.000
    C198    C    0.61790   0.16527   0.90397   1.000
    C199    C    0.49670   0.35954   0.90782   1.000
    C200    C    0.57814   0.38113   0.93261   1.000
    C201    C    0.86976   0.69263   0.22260   1.000
    C202    C    0.97362   0.68536   0.23994   1.000
    C203    C    0.02193   0.76468   0.21467   1.000
    C204    C    0.96085   0.84834   0.17248   1.000
    C205    C    0.85800   0.84969   0.15727   1.000
    C206    C    0.13499   0.75947   0.23140   1.000
    C207    C    0.35963   0.41059   0.25269   1.000
    C208    C    0.41332   0.45605   0.19700   1.000
    C209    C    0.50369   0.36161   0.16381   1.000
    C210    C    0.62227   0.33949   0.16121   1.000
    C211    C    0.70398   0.25295   0.12848   1.000
    C212    C    0.66878   0.18798   0.09832   1.000
    C213    C    0.55046   0.20800   0.10081   1.000
    C214    C    0.46952   0.29494   0.13362   1.000
    C215    C    0.51245   0.13525   0.06948   1.000
    C216    C    0.56324   0.00708   0.09348   1.000
    C217    C    0.46855   0.18674   0.40489   1.000
    C218    C    0.54794   0.13071   0.44545   1.000
    C219    C    0.50894   0.12998   0.50350   1.000
    C220    C    0.38853   0.18569   0.51765   1.000
    C221    C    0.31409   0.23889   0.47485   1.000
    C222    C    0.59169   0.07630   0.54904   1.000
    C223    C    0.61856   0.16737   0.57418   1.000
    C224    C    0.68778   0.22334   0.53125   1.000
    C225    C    0.70978   0.31419   0.55643   1.000
    C226    C    0.81980   0.29518   0.57149   1.000
    C227    C    0.83476   0.38119   0.59612   1.000
    C228    C    0.64030   0.50221   0.59282   1.000
    C229    C    0.61868   0.42126   0.56764   1.000
    C230    C    0.30729   0.13151   0.27650   1.000
    C231    C    0.31483   0.02725   0.25953   1.000
    C232    C    0.23603   0.97868   0.28527   1.000
    C233    C    0.15267   0.03978   0.32758   1.000
    C234    C    0.15102   0.14301   0.34242   1.000
    C235    C    0.24115   0.86541   0.26890   1.000
    C236    C    0.87389   0.12494   0.75031   1.000
    C237    C    0.12608   0.87504   0.24966   1.000
    C238    C    0.23937   0.35315   0.91999   1.000
    C239    C    0.48502   0.74659   0.10620   1.000
    C240    C    0.18792   0.22689   0.81815   1.000
    C241    C    0.64688   0.75956   0.58084   1.000
    C242    C    0.25341   0.51616   0.39310   1.000
    C243    C    0.77285   0.81071   0.68258   1.000
    C244    C    0.76060   0.64682   0.07997   1.000
    C245    C    0.51495   0.25337   0.89376   1.000
    C246    C    0.81207   0.77306   0.18181   1.000
    C247    C    0.35309   0.24040   0.41913   1.000
    C248    C    0.74657   0.48380   0.60682   1.000
    C249    C    0.22711   0.18926   0.31739   1.000
    C250    C    0.44902   0.24630   0.76020   1.000
    C251    C    0.34050   0.42399   0.78969   1.000
    C252    C    0.97714   0.50665   0.63916   1.000
    C253    C    0.93730   0.65533   0.57054   1.000
    C254    C    0.75189   0.55068   0.74083   1.000
    C255    C    0.57451   0.65941   0.71114   1.000
    C256    C    0.49126   0.02263   0.86189   1.000
    C257    C    0.34275   0.06261   0.93065   1.000
    C258    C    0.55098   0.75364   0.23970   1.000
    C259    C    0.65948   0.57595   0.21027   1.000
    C260    C    0.02280   0.49346   0.36082   1.000
    C261    C    0.06267   0.34470   0.42940   1.000
    C262    C    0.24808   0.44929   0.25914   1.000
    C263    C    0.42546   0.34052   0.28882   1.000
    C264    C    0.50872   0.97733   0.13808   1.000
    C265    C    0.65722   0.93734   0.06931   1.000
    O266    O    0.75686   0.33595   0.98406   1.000
    O267    O    0.15740   0.44871   0.01128   1.000
    O268    O    0.10300   0.55023   0.02706   1.000
    O269    O    0.13007   0.52846   0.97522   1.000
    O270    O    0.74042   0.73302   0.01969   1.000
    O271    O    0.18896   0.72967   0.02459   1.000
    O272    O    0.18602   0.37060   0.04081   1.000
    O273    O    0.21150   0.35129   0.99713   1.000
    O274    O    0.52734   0.13790   0.04672   1.000
    O275    O    0.76133   0.66635   0.05212   1.000
    O276    O    0.78847   0.64868   0.00264   1.000
    O277    O    0.26876   0.69886   0.04425   1.000
    O278    O    0.19535   0.65321   0.05341   1.000
    O279    O    0.24312   0.66401   0.01285   1.000
    O280    O    0.04269   0.63237   0.04157   1.000
    O281    O    0.12195   0.60504   0.06254   1.000
    O282    O    0.05425   0.57242   0.06751   1.000
    O283    O    0.89068   0.40567   0.06036   1.000
    O284    O    0.84168   0.49164   0.07383   1.000
    O285    O    0.86990   0.47151   0.02449   1.000
    O286    O    0.36812   0.66434   0.06200   1.000
    O287    O    0.30499   0.76479   0.06423   1.000
    O288    O    0.43192   0.57474   0.06229   1.000
    O289    O    0.25481   0.85703   0.06795   1.000
    O290    O    0.46255   0.62963   0.07975   1.000
    O291    O    0.61023   0.97221   0.08140   1.000
    O292    O    0.46471   0.15143   0.07180   1.000
    O293    O    0.53784   0.07116   0.08148   1.000
    O294    O    0.53145   0.17162   0.08514   1.000
    O295    O    0.33882   0.82721   0.08390   1.000
    O296    O    0.70063   0.15424   0.08553   1.000
    O297    O    0.20184   0.57744   0.08286   1.000
    O298    O    0.14644   0.64317   0.09359   1.000
    O299    O    0.78722   0.58907   0.08705   1.000
    O300    O    0.69883   0.71261   0.11454   1.000
    O301    O    0.54472   0.60533   0.09704   1.000
    O302    O    0.49415   0.69351   0.09917   1.000
    O303    O    0.53598   0.99221   0.11578   1.000
    O304    O    0.81107   0.51749   0.11682   1.000
    O305    O    0.43355   0.79064   0.10110   1.000
    O306    O    0.37657   0.87699   0.10185   1.000
    O307    O    0.60962   0.19799   0.09957   1.000
    O308    O    0.68638   0.22047   0.11340   1.000
    O309    O    0.50999   0.25147   0.11721   1.000
    O310    O    0.56104   0.76250   0.12765   1.000
    O311    O    0.83367   0.88120   0.14074   1.000
    O312    O    0.75012   0.24458   0.12754   1.000
    O313    O    0.66312   0.29622   0.14485   1.000
    O314    O    0.42335   0.30303   0.13481   1.000
    O315    O    0.48661   0.32827   0.14872   1.000
    O316    O    0.57289   0.87787   0.14359   1.000
    O317    O    0.72457   0.77573   0.16546   1.000
    O318    O    0.59402   0.76603   0.19440   1.000
    O319    O    0.97712   0.88055   0.16176   1.000
    O320    O    0.90943   0.84901   0.16488   1.000
    O321    O    0.83504   0.81137   0.16954   1.000
    O322    O    0.56298   0.35055   0.16251   1.000
    O323    O    0.63603   0.36522   0.17285   1.000
    O324    O    0.45850   0.40883   0.18041   1.000
    O325    O    0.37768   0.48432   0.18449   1.000
    O326    O    0.99139   0.80651   0.19357   1.000
    O327    O    0.84091   0.73284   0.20221   1.000
    O328    O    0.16840   0.74704   0.21315   1.000
    O329    O    0.43353   0.48345   0.20300   1.000
    O330    O    0.38647   0.43332   0.22485   1.000
    O331    O    0.62443   0.60905   0.22814   1.000
    O332    O    0.11321   0.90953   0.23196   1.000
    O333    O    0.07846   0.76208   0.22303   1.000
    O334    O    0.99778   0.72502   0.22731   1.000
    O335    O    0.92169   0.68900   0.23127   1.000
    O336    O    0.85030   0.66212   0.23211   1.000
    O337    O    0.34877   0.00593   0.24307   1.000
    O338    O    0.13053   0.81726   0.24053   1.000
    O339    O    0.15060   0.72414   0.24845   1.000
    O340    O    0.27706   0.84911   0.25218   1.000
    O341    O    0.57018   0.69790   0.24285   1.000
    O342    O    0.99488   0.65136   0.25632   1.000
    O343    O    0.56650   0.61555   0.27364   1.000
    O344    O    0.18361   0.87023   0.25928   1.000
    O345    O    0.09090   0.88914   0.26698   1.000
    O346    O    0.30385   0.42994   0.25592   1.000
    O347    O    0.39255   0.37556   0.27076   1.000
    O348    O    0.33763   0.15107   0.26683   1.000
    O349    O    0.23499   0.40685   0.30449   1.000
    O350    O    0.31106   0.07938   0.26802   1.000
    O351    O    0.27543   0.00297   0.27240   1.000
    O352    O    0.23859   0.92205   0.27709   1.000
    O353    O    0.25254   0.83247   0.28739   1.000
    O354    O    0.26720   0.16038   0.29695   1.000
    O355    O    0.19435   0.00923   0.30643   1.000
    O356    O    0.51599   0.56893   0.29535   1.000
    O357    O    0.51554   0.62470   0.31418   1.000
    O358    O    0.59079   0.54369   0.31826   1.000
    O359    O    0.63382   0.36622   0.32643   1.000
    O360    O    0.18907   0.16614   0.32991   1.000
    O361    O    0.22451   0.27684   0.33361   1.000
    O362    O    0.15184   0.09139   0.33500   1.000
    O363    O    0.12070   0.02335   0.33844   1.000
    O364    O    0.64883   0.43919   0.33661   1.000
    O365    O    0.67150   0.51544   0.35024   1.000
    O366    O    0.70296   0.33908   0.35434   1.000
    O367    O    0.11962   0.16738   0.35898   1.000
    O368    O    0.12235   0.42893   0.35533   1.000
    O369    O    0.23765   0.44029   0.37146   1.000
    O370    O    0.28750   0.30241   0.38448   1.000
    O371    O    0.48235   0.18950   0.38216   1.000
    O372    O    0.00787   0.46612   0.38307   1.000
    O373    O    0.69711   0.57858   0.36398   1.000
    O374    O    0.74846   0.49198   0.38165   1.000
    O375    O    0.75445   0.25210   0.37169   1.000
    O376    O    0.77889   0.31574   0.38569   1.000
    O377    O    0.35680   0.85386   0.40718   1.000
    O378    O    0.39480   0.45645   0.39857   1.000
    O379    O    0.12289   0.62437   0.39799   1.000
    O380    O    0.20931   0.56747   0.39848   1.000
    O381    O    0.30655   0.50696   0.40012   1.000
    O382    O    0.80172   0.39239   0.39938   1.000
    O383    O    0.82832   0.47053   0.41370   1.000
    O384    O    0.84529   0.30141   0.41347   1.000
    O385    O    0.17270   0.66178   0.41617   1.000
    O386    O    0.41082   0.21357   0.41201   1.000
    O387    O    0.50824   0.15873   0.42517   1.000
    O388    O    0.92885   0.46416   0.41732   1.000
    O389    O    0.02781   0.39174   0.41736   1.000
    O390    O    0.37050   0.53823   0.41973   1.000
    O391    O    0.42258   0.79844   0.41783   1.000
    O392    O    0.42735   0.94589   0.43356   1.000
    O393    O    0.33359   0.23965   0.44699   1.000
    O394    O    0.84856   0.53728   0.42696   1.000
    O395    O    0.39488   0.87812   0.43834   1.000
    O396    O    0.34682   0.80460   0.44725   1.000
    O397    O    0.14286   0.74541   0.43252   1.000
    O398    O    0.23519   0.69528   0.43601   1.000
    O399    O    0.86207   0.47473   0.45210   1.000
    O400    O    0.59422   0.10941   0.43858   1.000
    O401    O    0.42545   0.56858   0.43733   1.000
    O402    O    0.33576   0.63224   0.43792   1.000
    O403    O    0.62933   0.81336   0.46005   1.000
    O404    O    0.30120   0.73120   0.45612   1.000
    O405    O    0.52844   0.13035   0.47448   1.000
    O406    O    0.36745   0.95713   0.45953   1.000
    O407    O    0.44968   0.89681   0.47369   1.000
    O408    O    0.27040   0.81068   0.47607   1.000
    O409    O    0.33612   0.75640   0.48767   1.000
    O410    O    0.26696   0.26069   0.47943   1.000
    O411    O    0.35131   0.21229   0.49625   1.000
    O412    O    0.55125   0.84212   0.48938   1.000
    O413    O    0.64867   0.78766   0.50371   1.000
    O414    O    0.66386   0.24357   0.51228   1.000
    O415    O    0.47154   0.86961   0.52548   1.000
    O416    O    0.44874   0.15784   0.51058   1.000
    O417    O    0.55032   0.10314   0.52627   1.000
    O418    O    0.73302   0.73927   0.52051   1.000
    O419    O    0.72958   0.18930   0.52388   1.000
    O420    O    0.37066   0.18660   0.53991   1.000
    O421    O    0.13790   0.52524   0.54787   1.000
    O422    O    0.66639   0.76031   0.55298   1.000
    O423    O    0.69878   0.26877   0.54384   1.000
    O424    O    0.65317   0.19535   0.55271   1.000
    O425    O    0.63255   0.04283   0.54042   1.000
    O426    O    0.60512   0.12183   0.56161   1.000
    O427    O    0.57265   0.05405   0.56639   1.000
    O428    O    0.40576   0.89055   0.56138   1.000
    O429    O    0.49173   0.84123   0.57479   1.000
    O430    O    0.66423   0.36772   0.56204   1.000
    O431    O    0.76479   0.30469   0.56396   1.000
    O432    O    0.57454   0.43139   0.56263   1.000
    O433    O    0.85713   0.25455   0.56745   1.000
    O434    O    0.62949   0.46173   0.58023   1.000
    O435    O    0.97215   0.60831   0.58257   1.000
    O436    O    0.15137   0.46271   0.57301   1.000
    O437    O    0.07111   0.53586   0.58262   1.000
    O438    O    0.17165   0.52946   0.58627   1.000
    O439    O    0.82728   0.33819   0.58381   1.000
    O440    O    0.15469   0.69857   0.58650   1.000
    O441    O    0.57742   0.20151   0.58214   1.000
    O442    O    0.64321   0.14609   0.59278   1.000
    O443    O    0.58915   0.78639   0.58796   1.000
    O444    O    0.71247   0.69757   0.61549   1.000
    O445    O    0.60518   0.54352   0.59789   1.000
    O446    O    0.69344   0.49301   0.59982   1.000
    O447    O    0.99207   0.53397   0.61688   1.000
    O448    O    0.51762   0.81046   0.61780   1.000
    O449    O    0.79067   0.43250   0.60147   1.000
    O450    O    0.87709   0.37559   0.60198   1.000
    O451    O    0.19825   0.60759   0.60059   1.000
    O452    O    0.22109   0.68423   0.61428   1.000
    O453    O    0.25151   0.50800   0.61831   1.000
    O454    O    0.76231   0.55969   0.62848   1.000
    O455    O    0.88035   0.83259   0.64096   1.000
    O456    O    0.24554   0.74786   0.62829   1.000
    O457    O    0.29702   0.66088   0.64563   1.000
    O458    O    0.30286   0.42139   0.63599   1.000
    O459    O    0.32848   0.48452   0.64972   1.000
    O460    O    0.87760   0.57112   0.64465   1.000
    O461    O    0.77546   0.72315   0.66636   1.000
    O462    O    0.76497   0.59313   0.69549   1.000
    O463    O    0.87929   0.97661   0.66150   1.000
    O464    O    0.84814   0.90857   0.66495   1.000
    O465    O    0.81091   0.83384   0.67004   1.000
    O466    O    0.35115   0.56077   0.66335   1.000
    O467    O    0.36616   0.63374   0.67355   1.000
    O468    O    0.40920   0.45626   0.68171   1.000
    O469    O    0.80563   0.99074   0.69355   1.000
    O470    O    0.48444   0.37526   0.68579   1.000
    O471    O    0.73276   0.83959   0.70302   1.000
    O472    O    0.74743   0.16750   0.71259   1.000
    O473    O    0.48399   0.43103   0.70463   1.000
    O474    O    0.43349   0.38440   0.72618   1.000
    O475    O    0.60742   0.62438   0.72920   1.000
    O476    O    0.76139   0.07792   0.72288   1.000
    O477    O    0.72455   0.99700   0.72755   1.000
    O478    O    0.90907   0.11084   0.73298   1.000
    O479    O    0.68891   0.92059   0.73193   1.000
    O480    O    0.66234   0.84891   0.73313   1.000
    O481    O    0.00510   0.34860   0.74360   1.000
    O482    O    0.81636   0.12975   0.74069   1.000
    O483    O    0.72291   0.15086   0.74779   1.000
    O484    O    0.84936   0.27584   0.75151   1.000
    O485    O    0.65120   0.99404   0.75685   1.000
    O486    O    0.69612   0.57001   0.74405   1.000
    O487    O    0.61350   0.56662   0.77472   1.000
    O488    O    0.86944   0.18272   0.75943   1.000
    O489    O    0.88676   0.09045   0.76801   1.000
    O490    O    0.42981   0.30205   0.75694   1.000
    O491    O    0.37556   0.39089   0.77168   1.000
    O492    O    0.14970   0.33782   0.76783   1.000
    O493    O    0.07830   0.31095   0.76868   1.000
    O494    O    0.00220   0.27495   0.77265   1.000
    O495    O    0.40597   0.23392   0.80554   1.000
    O496    O    0.92151   0.23790   0.77692   1.000
    O497    O    0.83157   0.25293   0.78681   1.000
    O498    O    0.15908   0.26710   0.79775   1.000
    O499    O    0.00857   0.19347   0.80639   1.000
    O500    O    0.56645   0.51650   0.79617   1.000
    O501    O    0.62231   0.51564   0.81509   1.000
    O502    O    0.54147   0.59112   0.81916   1.000
    O503    O    0.36394   0.63474   0.82711   1.000
    O504    O    0.16494   0.18859   0.83043   1.000
    O505    O    0.27542   0.22422   0.83451   1.000
    O506    O    0.09054   0.15096   0.83510   1.000
    O507    O    0.02284   0.11943   0.83820   1.000
    O508    O    0.43700   0.64941   0.83745   1.000
    O509    O    0.51337   0.67168   0.85125   1.000
    O510    O    0.33685   0.70373   0.85512   1.000
    O511    O    0.16630   0.11877   0.85923   1.000
    O512    O    0.42709   0.12209   0.85638   1.000
    O513    O    0.43893   0.23746   0.87231   1.000
    O514    O    0.30114   0.28735   0.88543   1.000
    O515    O    0.18890   0.48247   0.88310   1.000
    O516    O    0.46400   0.00776   0.88419   1.000
    O517    O    0.57663   0.69692   0.86516   1.000
    O518    O    0.48999   0.74849   0.88275   1.000
    O519    O    0.24985   0.75538   0.87242   1.000
    O520    O    0.31360   0.77949   0.88656   1.000
    O521    O    0.85352   0.35680   0.90637   1.000
    O522    O    0.62340   0.12297   0.89812   1.000
    O523    O    0.56642   0.20932   0.89887   1.000
    O524    O    0.50583   0.30645   0.90079   1.000
    O525    O    0.45525   0.39463   0.90294   1.000
    O526    O    0.39036   0.80197   0.90040   1.000
    O527    O    0.46852   0.82833   0.91482   1.000
    O528    O    0.29934   0.84571   0.91443   1.000
    O529    O    0.66115   0.17275   0.91607   1.000
    O530    O    0.21275   0.41090   0.91291   1.000
    O531    O    0.15829   0.50832   0.92613   1.000
    O532    O    0.46213   0.92879   0.91848   1.000
    O533    O    0.38975   0.02774   0.91857   1.000
    O534    O    0.53742   0.37033   0.92022   1.000
    O535    O    0.79813   0.42253   0.91710   1.000
    O536    O    0.94571   0.42756   0.93244   1.000
    O537    O    0.23864   0.33362   0.94784   1.000
    O538    O    0.87802   0.39493   0.93742   1.000
    O539    O    0.80462   0.34676   0.94655   1.000
    O540    O    0.53527   0.84852   0.92816   1.000
    O541    O    0.74516   0.14294   0.93202   1.000
    O542    O    0.69499   0.23518   0.93573   1.000
    O543    O    0.47264   0.86205   0.95325   1.000
    O544    O    0.56805   0.42522   0.93768   1.000
    O545    O    0.63185   0.33563   0.93796   1.000
    O546    O    0.10928   0.59429   0.93960   1.000
    O547    O    0.81395   0.62937   0.95894   1.000
    O548    O    0.73121   0.30111   0.95571   1.000
    O549    O    0.95728   0.36761   0.95838   1.000
    O550    O    0.89697   0.44974   0.97266   1.000
    O551    O    0.81102   0.27030   0.97537   1.000
    O552    O    0.25955   0.26695   0.98025   1.000
    O553    O    0.84257   0.55126   0.98823   1.000
loop_
    _geom_bond_atom_site_label_1
    _geom_bond_atom_site_label_2
    _geom_bond_distance
    _geom_bond_site_symmetry_2
    _ccdc_geom_bond_type
    C79    O266      0.49150  1_554   S
    C195   O266      0.49150      .   S
    C132   O267      0.70206      .   S
    C133   O267      0.70206      .   S
    C132   O268      0.75604      .   S
    C135   O268      0.75604      .   S
    C132   O269      0.69491  1_554   S
    C131   O269      0.69491      .   S
    C73    O270      0.54586      .   S
    C192   O270      0.54586      .   S
    C20    O271      0.55079      .   S
    C137   O271      0.55079      .   S
    C133   O272      0.54577      .   S
    C14    O272      0.54577      .   S
    C133   O273      0.69544  1_554   S
    C134   O273      0.69544      .   S
    C98    O274      0.54914      .   S
    C215   O274      0.54914      .   S
    C192   O275      0.67433      .   S
    C244   O275      0.67433      .   S
    C192   O276      0.69906      .   S
    C191   O276      0.69906  1_556   S
    C137   O277      0.75142      .   S
    C138   O277      0.75142      .   S
    C137   O278      0.76835      .   S
    C136   O278      0.76835      .   S
    C137   O279      0.55054      .   S
    C21    O279      0.55054  1_556   S
    C17    O280      0.55033      .   S
    C135   O280      0.55033      .   S
    C135   O281      0.76985      .   S
    C136   O281      0.76985      .   S
    C135   O282      0.54965      .   S
    C16    O282      0.54965      .   S
    C189   O283      0.54526      .   S
    C71    O283      0.54526      .   S
    C189   O284      0.69599      .   S
    C188   O284      0.69599      .   S
    C189   O285      0.70049      .   S
    C190   O285      0.70049  1_556   S
    C138   O286      0.70063      .   S
    C142   O286      0.70063      .   S
    C138   O287      0.70015      .   S
    C139   O287      0.70015      .   S
    C25    O288      0.54553      .   S
    C142   O288      0.54553      .   S
    C22    O289      0.54556      .   S
    C139   O289      0.54556      .   S
    C142   O290      0.69456      .   S
    C141   O290      0.69456      .   S
    C265   O291      0.63422      .   S
    C216   O291      0.63422  1_545   S
    C215   O292      0.54892      .   S
    C97    O292      0.54892      .   S
    C215   O293      0.76670      .   S
    C216   O293      0.76670      .   S
    C215   O294      0.75660      .   S
    C213   O294      0.75660      .   S
    C139   O295      0.69663      .   S
    C140   O295      0.69663      .   S
    C95    O296      0.54558      .   S
    C212   O296      0.54558      .   S
    C136   O297      0.55071      .   S
    C19    O297      0.55071      .   S
    C136   O298      0.54953      .   S
    C18    O298      0.54953      .   S
    C244   O299      0.67380      .   S
    C188   O299      0.67380      .   S
    C244   O300      1.20690      .   S
    C2     O300      1.20690      .   S
    C141   O301      0.54453      .   S
    C24    O301      0.54453      .   S
    C141   O302      0.67383      .   S
    C239   O302      0.67383      .   S
    C216   O303      0.63970  1_545   S
    C264   O303      0.63970      .   S
    C188   O304      0.54458      .   S
    C70    O304      0.54458      .   S
    C140   O305      0.67356      .   S
    C239   O305      0.67356      .   S
    C140   O306      0.54565      .   S
    C23    O306      0.54565      .   S
    C212   O307      0.70206      .   S
    C213   O307      0.70206      .   S
    C212   O308      0.69716      .   S
    C211   O308      0.69716      .   S
    C213   O309      0.69948      .   S
    C214   O309      0.69948      .   S
    C239   O310      1.24507      .   S
    C2     O310      1.24507      .   S
    C87    O311      0.54544      .   S
    C205   O311      0.54544      .   S
    C94    O312      0.54591      .   S
    C211   O312      0.54591      .   S
    C211   O313      0.69916      .   S
    C210   O313      0.69916      .   S
    C214   O314      0.54664      .   S
    C96    O314      0.54664      .   S
    C214   O315      0.70184      .   S
    C209   O315      0.70184      .   S
    C264   O316      1.18386      .   S
    C2     O316      1.18386      .   S
    C2     O317      1.20935      .   S
    C246   O317      1.20935      .   S
    C2     O318      1.15768      .   S
    C258   O318      1.15768      .   S
    C86    O319      0.54556      .   S
    C204   O319      0.54556      .   S
    C205   O320      0.69526      .   S
    C204   O320      0.69526      .   S
    C205   O321      0.67495      .   S
    C246   O321      0.67495      .   S
    C210   O322      0.70033      .   S
    C209   O322      0.70033      .   S
    C210   O323      0.54607      .   S
    C93    O323      0.54607      .   S
    C209   O324      0.74921      .   S
    C208   O324      0.74921      .   S
    C92    O325      0.54317      .   S
    C208   O325      0.54317      .   S
    C204   O326      0.70220      .   S
    C203   O326      0.70220  1_455   S
    C246   O327      0.67474      .   S
    C201   O327      0.67474      .   S
    C88    O328      0.55199      .   S
    C206   O328      0.55199      .   S
    C208   O329      0.54991      .   S
    C91    O329      0.54991      .   S
    C208   O330      0.77453      .   S
    C207   O330      0.77453      .   S
    C259   O331      0.63001      .   S
    C178   O331      0.63001      .   S
    C90    O332      0.55088      .   S
    C237   O332      0.55088      .   S
    C203   O333      0.75498      .   S
    C206   O333      0.75498      .   S
    C203   O334      0.70141  1_455   S
    C202   O334      0.70141      .   S
    C201   O335      0.69730      .   S
    C202   O335      0.69730      .   S
    C201   O336      0.54579      .   S
    C84    O336      0.54579      .   S
    C114   O337      0.54561  1_565   S
    C231   O337      0.54561      .   S
    C206   O338      0.76898      .   S
    C237   O338      0.76898      .   S
    C206   O339      0.54983      .   S
    C89    O339      0.54983      .   S
    C118   O340      0.54975      .   S
    C235   O340      0.54975      .   S
    C258   O341      0.64091      .   S
    C178   O341      0.64091      .   S
    C202   O342      0.54454      .   S
    C85    O342      0.54454  1_455   S
    C178   O343      0.77030      .   S
    C179   O343      0.77030      .   S
    C237   O344      0.76907      .   S
    C235   O344      0.76907      .   S
    C237   O345      0.55082      .   S
    C119   O345      0.55082      .   S
    C207   O346      0.64104      .   S
    C262   O346      0.64104      .   S
    C207   O347      0.63223      .   S
    C263   O347      0.63223      .   S
    C113   O348      0.54573      .   S
    C230   O348      0.54573      .   S
    C262   O349      1.15749      .   S
    C3     O349      1.15749      .   S
    C231   O350      0.69723      .   S
    C230   O350      0.69723      .   S
    C231   O351      0.70129      .   S
    C232   O351      0.70129  1_565   S
    C235   O352      0.75490      .   S
    C232   O352      0.75490      .   S
    C235   O353      0.55208      .   S
    C117   O353      0.55208      .   S
    C230   O354      0.67484      .   S
    C249   O354      0.67484      .   S
    C232   O355      0.70220  1_565   S
    C233   O355      0.70220      .   S
    C62    O356      0.54991      .   S
    C179   O356      0.54991      .   S
    C179   O357      0.54865      .   S
    C63    O357      0.54865      .   S
    C179   O358      0.75427      .   S
    C180   O358      0.75427      .   S
    C64    O359      0.54609      .   S
    C181   O359      0.54609      .   S
    C249   O360      0.67503      .   S
    C234   O360      0.67503      .   S
    C249   O361      1.20921      .   S
    C3     O361      1.20921      .   S
    C233   O362      0.69517      .   S
    C234   O362      0.69517      .   S
    C233   O363      0.54532      .   S
    C115   O363      0.54532      .   S
    C180   O364      0.70029      .   S
    C181   O364      0.70029      .   S
    C180   O365      0.70182      .   S
    C185   O365      0.70182      .   S
    C181   O366      0.69923      .   S
    C182   O366      0.69923      .   S
    C234   O367      0.54545      .   S
    C116   O367      0.54545      .   S
    C3     O368      1.18569      .   S
    C260   O368      1.18569      .   S
    C3     O369      1.24478      .   S
    C242   O369      1.24478      .   S
    C3     O370      1.20808      .   S
    C247   O370      1.20808      .   S
    C99    O371      0.54547      .   S
    C217   O371      0.54547      .   S
    C260   O372      0.63976      .   S
    C187   O372      0.63976  1_655   S
    C67    O373      0.54662      .   S
    C185   O373      0.54662      .   S
    C185   O374      0.69948      .   S
    C184   O374      0.69948      .   S
    C182   O375      0.54588      .   S
    C65    O375      0.54588      .   S
    C182   O376      0.69723      .   S
    C183   O376      0.69723      .   S
    C47    O377      0.54951      .   S
    C165   O377      0.54951      .   S
    C53    O378      0.57043      .   S
    C170   O378      0.57043      .   S
    C52    O379      0.54569      .   S
    C169   O379      0.54569      .   S
    C242   O380      0.67372      .   S
    C169   O380      0.67372      .   S
    C242   O381      0.67413      .   S
    C170   O381      0.67413      .   S
    C184   O382      0.70205      .   S
    C183   O382      0.70205      .   S
    C184   O383      0.75666      .   S
    C186   O383      0.75666      .   S
    C183   O384      0.54557      .   S
    C66    O384      0.54557      .   S
    C169   O385      0.69658      .   S
    C168   O385      0.69658      .   S
    C217   O386      0.67382      .   S
    C247   O386      0.67382      .   S
    C217   O387      0.69608      .   S
    C218   O387      0.69608      .   S
    C187   O388      0.76664      .   S
    C186   O388      0.76664      .   S
    C187   O389      0.63425  1_655   S
    C261   O389      0.63425      .   S
    C170   O390      0.69453      .   S
    C171   O390      0.69453      .   S
    C48    O391      0.55073      .   S
    C165   O391      0.55073      .   S
    C45    O392      0.54984      .   S
    C164   O392      0.54984      .   S
    C247   O393      0.67439      .   S
    C221   O393      0.67439      .   S
    C68    O394      0.54891      .   S
    C186   O394      0.54891      .   S
    C165   O395      0.76980      .   S
    C164   O395      0.76980      .   S
    C165   O396      0.76840      .   S
    C166   O396      0.76840      .   S
    C168   O397      0.54557      .   S
    C51    O397      0.54557      .   S
    C168   O398      0.70019      .   S
    C167   O398      0.70019      .   S
    C186   O399      0.54933      .   S
    C69    O399      0.54933      .   S
    C100   O400      0.54531      .   S
    C218   O400      0.54531      .   S
    C171   O401      0.54553      .   S
    C54    O401      0.54553      .   S
    C171   O402      0.70062      .   S
    C167   O402      0.70062      .   S
    C43    O403      0.54551      .   S
    C162   O403      0.54551      .   S
    C167   O404      0.75141      .   S
    C166   O404      0.75141      .   S
    C218   O405      0.70017      .   S
    C219   O405      0.70017      .   S
    C164   O406      0.55036      .   S
    C46    O406      0.55036      .   S
    C164   O407      0.75167      .   S
    C161   O407      0.75167      .   S
    C166   O408      0.55083      .   S
    C49    O408      0.55083      .   S
    C166   O409      0.55061      .   S
    C50    O409      0.55061      .   S
    C221   O410      0.54575      .   S
    C102   O410      0.54575      .   S
    C221   O411      0.69530      .   S
    C220   O411      0.69530      .   S
    C162   O412      0.70123      .   S
    C161   O412      0.70123      .   S
    C162   O413      0.69546      .   S
    C163   O413      0.69546      .   S
    C108   O414      0.55085      .   S
    C224   O414      0.55085      .   S
    C161   O415      0.70019      .   S
    C160   O415      0.70019      .   S
    C219   O416      0.70122      .   S
    C220   O416      0.70122      .   S
    C219   O417      0.75162      .   S
    C222   O417      0.75162      .   S
    C44    O418      0.54586      .   S
    C163   O418      0.54586      .   S
    C107   O419      0.55083      .   S
    C224   O419      0.55083      .   S
    C220   O420      0.54572      .   S
    C101   O420      0.54572      .   S
    C11    O421      0.54929      .   S
    C128   O421      0.54929      .   S
    C163   O422      0.67440      .   S
    C241   O422      0.67440      .   S
    C224   O423      0.75138      .   S
    C225   O423      0.75138      .   S
    C224   O424      0.76840      .   S
    C223   O424      0.76840      .   S
    C104   O425      0.55034      .   S
    C222   O425      0.55034      .   S
    C222   O426      0.76986      .   S
    C223   O426      0.76986      .   S
    C222   O427      0.54969      .   S
    C103   O427      0.54969      .   S
    C160   O428      0.54531      .   S
    C42    O428      0.54531      .   S
    C160   O429      0.69606      .   S
    C159   O429      0.69606      .   S
    C225   O430      0.70062      .   S
    C229   O430      0.70062      .   S
    C225   O431      0.70023      .   S
    C226   O431      0.70023      .   S
    C112   O432      0.54556      .   S
    C229   O432      0.54556      .   S
    C109   O433      0.54562      .   S
    C226   O433      0.54562      .   S
    C229   O434      0.69453      .   S
    C228   O434      0.69453      .   S
    C253   O435      0.63402      .   S
    C129   O435      0.63402  1_455   S
    C128   O436      0.54890      .   S
    C10    O436      0.54890      .   S
    C128   O437      0.76651      .   S
    C129   O437      0.76651      .   S
    C128   O438      0.75662      .   S
    C126   O438      0.75662      .   S
    C226   O439      0.69659      .   S
    C227   O439      0.69659      .   S
    C8     O440      0.54556      .   S
    C125   O440      0.54556      .   S
    C223   O441      0.55074      .   S
    C106   O441      0.55074      .   S
    C223   O442      0.54955      .   S
    C105   O442      0.54955      .   S
    C241   O443      0.67380      .   S
    C159   O443      0.67380      .   S
    C241   O444      1.20797      .   S
    C1     O444      1.20797      .   S
    C228   O445      0.54452      .   S
    C111   O445      0.54452      .   S
    C228   O446      0.67394      .   S
    C248   O446      0.67394      .   S
    C129   O447      0.64011  1_455   S
    C252   O447      0.64011      .   S
    C159   O448      0.54547      .   S
    C41    O448      0.54547      .   S
    C227   O449      0.67360      .   S
    C248   O449      0.67360      .   S
    C227   O450      0.54567      .   S
    C110   O450      0.54567      .   S
    C125   O451      0.70205      .   S
    C126   O451      0.70205      .   S
    C125   O452      0.69724      .   S
    C124   O452      0.69724      .   S
    C126   O453      0.69955      .   S
    C127   O453      0.69955      .   S
    C248   O454      1.24516      .   S
    C1     O454      1.24516      .   S
    C58    O455      0.54505      .   S
    C176   O455      0.54505      .   S
    C7     O456      0.54589      .   S
    C124   O456      0.54589      .   S
    C124   O457      0.69922      .   S
    C123   O457      0.69922      .   S
    C127   O458      0.54663      .   S
    C9     O458      0.54663      .   S
    C127   O459      0.70176      .   S
    C122   O459      0.70176      .   S
    C252   O460      1.18539      .   S
    C1     O460      1.18539      .   S
    C1     O461      1.20915      .   S
    C243   O461      1.20915      .   S
    C1     O462      1.15753      .   S
    C254   O462      1.15753      .   S
    C57    O463      0.54564      .   S
    C175   O463      0.54564      .   S
    C176   O464      0.69543      .   S
    C175   O464      0.69543      .   S
    C176   O465      0.67521      .   S
    C243   O465      0.67521      .   S
    C123   O466      0.70030      .   S
    C122   O466      0.70030      .   S
    C123   O467      0.54609      .   S
    C6     O467      0.54609      .   S
    C122   O468      0.75434      .   S
    C121   O468      0.75434      .   S
    C175   O469      0.70214      .   S
    C174   O469      0.70214  1_545   S
    C5     O470      0.54869      .   S
    C121   O470      0.54869      .   S
    C243   O471      0.67476      .   S
    C172   O471      0.67476      .   S
    C59    O472      0.55208      .   S
    C177   O472      0.55208      .   S
    C121   O473      0.54992      .   S
    C4     O473      0.54992      .   S
    C121   O474      0.76767      .   S
    C120   O474      0.76767      .   S
    C255   O475      0.63220      .   S
    C149   O475      0.63220      .   S
    C174   O476      0.75490      .   S
    C177   O476      0.75490      .   S
    C174   O477      0.70117  1_545   S
    C173   O477      0.70117      .   S
    C61    O478      0.55087      .   S
    C236   O478      0.55087      .   S
    C172   O479      0.69707      .   S
    C173   O479      0.69707      .   S
    C172   O480      0.54574      .   S
    C55    O480      0.54574      .   S
    C27    O481      0.54519  1_655   S
    C144   O481      0.54519      .   S
    C177   O482      0.76910      .   S
    C236   O482      0.76910      .   S
    C177   O483      0.54974      .   S
    C60    O483      0.54974      .   S
    C31    O484      0.54970      .   S
    C148   O484      0.54970      .   S
    C173   O485      0.54545      .   S
    C56    O485      0.54545  1_545   S
    C254   O486      0.64103      .   S
    C149   O486      0.64103      .   S
    C149   O487      0.76755      .   S
    C150   O487      0.76755      .   S
    C236   O488      0.76886      .   S
    C148   O488      0.76886      .   S
    C236   O489      0.55083      .   S
    C32    O489      0.55083      .   S
    C120   O490      0.64095      .   S
    C250   O490      0.64095      .   S
    C120   O491      0.63232      .   S
    C251   O491      0.63232      .   S
    C26    O492      0.54575      .   S
    C143   O492      0.54575      .   S
    C144   O493      0.69722      .   S
    C143   O493      0.69722      .   S
    C144   O494      0.70139      .   S
    C145   O494      0.70139  1_655   S
    C250   O495      1.15840      .   S
    C0     O495      1.15840      .   S
    C148   O496      0.75504      .   S
    C145   O496      0.75504      .   S
    C148   O497      0.55213      .   S
    C30    O497      0.55213      .   S
    C143   O498      0.67488      .   S
    C240   O498      0.67488      .   S
    C145   O499      0.70226  1_655   S
    C146   O499      0.70226      .   S
    C33    O500      0.54993      .   S
    C150   O500      0.54993      .   S
    C150   O501      0.54869      .   S
    C34    O501      0.54869      .   S
    C150   O502      0.75428      .   S
    C151   O502      0.75428      .   S
    C35    O503      0.54607      .   S
    C152   O503      0.54607      .   S
    C240   O504      0.67497      .   S
    C147   O504      0.67497      .   S
    C240   O505      1.20939      .   S
    C0     O505      1.20939      .   S
    C146   O506      0.69527      .   S
    C147   O506      0.69527      .   S
    C146   O507      0.54555      .   S
    C28    O507      0.54555      .   S
    C151   O508      0.70032      .   S
    C152   O508      0.70032      .   S
    C151   O509      0.70184      .   S
    C156   O509      0.70184      .   S
    C152   O510      0.69917      .   S
    C153   O510      0.69917      .   S
    C147   O511      0.54541      .   S
    C29    O511      0.54541      .   S
    C0     O512      1.18382      .   S
    C256   O512      1.18382      .   S
    C0     O513      1.24497      .   S
    C245   O513      1.24497      .   S
    C0     O514      1.20686      .   S
    C238   O514      1.20686      .   S
    C12    O515      0.54547      .   S
    C130   O515      0.54547      .   S
    C256   O516      0.63973      .   S
    C158   O516      0.63973  1_565   S
    C38    O517      0.54665      .   S
    C156   O517      0.54665      .   S
    C156   O518      0.69949      .   S
    C155   O518      0.69949      .   S
    C153   O519      0.54592      .   S
    C36    O519      0.54592      .   S
    C153   O520      0.69716      .   S
    C154   O520      0.69716      .   S
    C76    O521      0.54951      .   S
    C194   O521      0.54951      .   S
    C81    O522      0.54569      .   S
    C198   O522      0.54569      .   S
    C245   O523      0.67359      .   S
    C198   O523      0.67359      .   S
    C245   O524      0.67387      .   S
    C199   O524      0.67387      .   S
    C82    O525      0.54453      .   S
    C199   O525      0.54453      .   S
    C155   O526      0.70206      .   S
    C154   O526      0.70206      .   S
    C155   O527      0.75659      .   S
    C157   O527      0.75659      .   S
    C154   O528      0.54558      .   S
    C37    O528      0.54558      .   S
    C198   O529      0.69658      .   S
    C197   O529      0.69658      .   S
    C130   O530      0.67381      .   S
    C238   O530      0.67381      .   S
    C130   O531      0.69609      .   S
    C131   O531      0.69609      .   S
    C158   O532      0.76667      .   S
    C157   O532      0.76667      .   S
    C158   O533      0.63416  1_565   S
    C257   O533      0.63416      .   S
    C199   O534      0.69450      .   S
    C200   O534      0.69450      .   S
    C77    O535      0.55072      .   S
    C194   O535      0.55072      .   S
    C74    O536      0.54971      .   S
    C193   O536      0.54971      .   S
    C238   O537      0.67432      .   S
    C134   O537      0.67432      .   S
    C194   O538      0.76988      .   S
    C193   O538      0.76988      .   S
    C194   O539      0.76833      .   S
    C195   O539      0.76833      .   S
    C39    O540      0.54891      .   S
    C157   O540      0.54891      .   S
    C197   O541      0.54557      .   S
    C80    O541      0.54557      .   S
    C197   O542      0.70015      .   S
    C196   O542      0.70015      .   S
    C157   O543      0.54915      .   S
    C40    O543      0.54915      .   S
    C200   O544      0.54554      .   S
    C83    O544      0.54554      .   S
    C200   O545      0.70063      .   S
    C196   O545      0.70063      .   S
    C13    O546      0.54529      .   S
    C131   O546      0.54529      .   S
    C72    O547      0.54142      .   S
    C191   O547      0.54142      .   S
    C196   O548      0.75144      .   S
    C195   O548      0.75144      .   S
    C193   O549      0.55022      .   S
    C75    O549      0.55022      .   S
    C193   O550      0.75151      .   S
    C190   O550      0.75151      .   S
    C195   O551      0.55079      .   S
    C78    O551      0.55079      .   S
    C134   O552      0.54577      .   S
    C15    O552      0.54577      .   S
    C191   O553      0.70187      .   S
    C190   O553      0.70187      .   S
