# CIF file generated by openbabel 2.4.90, see http://openbabel.sf.net
data_I
_chemical_name_common ''
_cell_length_a 12.636
_cell_length_b 12.638
_cell_length_c 23.81
_cell_angle_alpha 81.895
_cell_angle_beta 81.878
_cell_angle_gamma 65.765
_space_group_name_H-M_alt 'P 1'
_space_group_name_Hall 'P 1'
loop_
    _symmetry_equiv_pos_as_xyz
    x,y,z
loop_
    _atom_site_label
    _atom_site_type_symbol
    _atom_site_fract_x
    _atom_site_fract_y
    _atom_site_fract_z
    _atom_site_occupancy
    N0      N    0.45278   0.71079   0.87164   1.000
    N1      N    0.71045   0.45496   0.37069   1.000
    N2      N    0.28953   0.54501   0.62928   1.000
    N3      N    0.24688   0.59709   0.03178   1.000
    N4      N    0.10572   0.89498   0.24986   1.000
    N5      N    0.89426   0.10499   0.75010   1.000
    N6      N    0.54720   0.28917   0.12822   1.000
    N7      N    0.40291   0.75311   0.46843   1.000
    N8      N    0.75309   0.40288   0.96793   1.000
    N9      N    0.59707   0.24685   0.53128   1.000
    Zr10    Zr   0.40483   0.18968   0.83621   1.000
    O11     O    0.38317   0.32719   0.75697   1.000
    O12     O    0.43114   0.00474   0.86564   1.000
    O13     O    0.50042   0.25492   0.87817   1.000
    O14     O    0.33942   0.31595   0.89741   1.000
    O15     O    0.24483   0.17714   0.81426   1.000
    Zr16    Zr   0.80946   0.59404   0.66481   1.000
    O17     O    0.74458   0.49865   0.62235   1.000
    O18     O    0.68358   0.65969   0.60339   1.000
    O19     O    0.82216   0.75405   0.68652   1.000
    O20     O    0.99489   0.56724   0.63538   1.000
    O21     O    0.67130   0.61637   0.74400   1.000
    Zr22    Zr   0.19050   0.40596   0.33515   1.000
    O23     O    0.32867   0.38360   0.25584   1.000
    O24     O    0.00507   0.43276   0.36458   1.000
    O25     O    0.31639   0.34030   0.39651   1.000
    O26     O    0.17780   0.24594   0.31344   1.000
    O27     O    0.25539   0.50133   0.37755   1.000
    Zr28    Zr   0.59515   0.81027   0.16371   1.000
    O29     O    0.56884   0.99522   0.13428   1.000
    O30     O    0.49956   0.74503   0.12171   1.000
    O31     O    0.66056   0.68401   0.10247   1.000
    O32     O    0.75515   0.82281   0.18568   1.000
    O33     O    0.61681   0.67276   0.24294   1.000
loop_
    _geom_bond_atom_site_label_1
    _geom_bond_atom_site_label_2
    _geom_bond_distance
    _geom_bond_site_symmetry_2
    _ccdc_geom_bond_type
    Zr10   O11       2.34213      .   S
    N2     O11       3.76878      .   S
    Zr10   O12       2.24290      .   S
    N0     O12       3.59488  1_565   S
    Zr10   O13       2.12787      .   S
    N8     O13       5.11998      .   S
    Zr10   O14       2.14136      .   S
    N3     O14       4.79218  1_554   S
    Zr10   O15       2.22947      .   S
    N5     O15       5.33012  1_655   S
    Zr16   O17       2.13003      .   S
    N9     O17       5.12441      .   S
    Zr16   O18       2.14229      .   S
    N7     O18       4.79680      .   S
    Zr16   O19       2.22866      .   S
    N5     O19       5.32835  1_545   S
    Zr16   O20       2.24658      .   S
    N2     O20       3.60016  1_455   S
    Zr16   O21       2.34469      .   S
    N0     O21       3.77245      .   S
    Zr22   O23       2.34680      .   S
    N6     O23       3.77207      .   S
    Zr22   O24       2.24657      .   S
    N1     O24       3.60011  1_655   S
    Zr22   O25       2.14135      .   S
    N9     O25       4.79364      .   S
    Zr22   O26       2.22878      .   S
    N4     O26       5.32858  1_565   S
    Zr22   O27       2.12899      .   S
    N7     O27       5.12188      .   S
    Zr28   O29       2.24292      .   S
    N6     O29       3.59478  1_545   S
    Zr28   O30       2.12841      .   S
    N3     O30       5.12217      .   S
    Zr28   O31       2.14197      .   S
    N8     O31       4.79500  1_556   S
    Zr28   O32       2.22968      .   S
    N4     O32       5.33031  1_455   S
    Zr28   O33       2.34194      .   S
    N1     O33       3.76984      .   S
