# CIF file generated by openbabel 2.4.90, see http://openbabel.sf.net
data_I
_chemical_name_common ''
_cell_length_a 12.636
_cell_length_b 12.638
_cell_length_c 23.81
_cell_angle_alpha 81.895
_cell_angle_beta 81.878
_cell_angle_gamma 65.765
_space_group_name_H-M_alt 'P 1'
_space_group_name_Hall 'P 1'
loop_
    _symmetry_equiv_pos_as_xyz
    x,y,z
loop_
    _atom_site_label
    _atom_site_type_symbol
    _atom_site_fract_x
    _atom_site_fract_y
    _atom_site_fract_z
    _atom_site_occupancy
    Zr0     Zr   0.36292   0.22155   0.85087   1.000
    Zr1     Zr   0.77806   0.63558   0.65014   1.000
    Zr2     Zr   0.63707   0.77841   0.14910   1.000
    Zr3     Zr   0.22190   0.36441   0.34983   1.000
    Zr4     Zr   0.41060   0.35780   0.75367   1.000
    Zr5     Zr   0.00700   0.56128   0.59460   1.000
    Zr6     Zr   0.64034   0.58935   0.74727   1.000
    Zr7     Zr   0.43674   0.99288   0.90649   1.000
    Zr8     Zr   0.58938   0.64215   0.24600   1.000
    Zr9     Zr   0.99295   0.43878   0.40532   1.000
    Zr10    Zr   0.35963   0.41059   0.25269   1.000
    Zr11    Zr   0.56324   0.00708   0.09348   1.000
    Zr12    Zr   0.44902   0.24630   0.76020   1.000
    Zr13    Zr   0.34050   0.42399   0.78969   1.000
    Zr14    Zr   0.97714   0.50665   0.63916   1.000
    Zr15    Zr   0.93730   0.65533   0.57054   1.000
    Zr16    Zr   0.75189   0.55068   0.74083   1.000
    Zr17    Zr   0.57451   0.65941   0.71114   1.000
    Zr18    Zr   0.49126   0.02263   0.86189   1.000
    Zr19    Zr   0.34275   0.06261   0.93065   1.000
    Zr20    Zr   0.55098   0.75364   0.23970   1.000
    Zr21    Zr   0.65948   0.57595   0.21027   1.000
    Zr22    Zr   0.02280   0.49346   0.36082   1.000
    Zr23    Zr   0.06267   0.34470   0.42940   1.000
    Zr24    Zr   0.24808   0.44929   0.25914   1.000
    Zr25    Zr   0.42546   0.34052   0.28882   1.000
    Zr26    Zr   0.50872   0.97733   0.13808   1.000
    Zr27    Zr   0.65722   0.93734   0.06931   1.000
    O28     O    0.61023   0.97221   0.08140   1.000
    O29     O    0.53598   0.99221   0.11578   1.000
    O30     O    0.57289   0.87787   0.14359   1.000
    O31     O    0.59402   0.76603   0.19440   1.000
    O32     O    0.62443   0.60905   0.22814   1.000
    O33     O    0.57018   0.69790   0.24285   1.000
    O34     O    0.30385   0.42994   0.25592   1.000
    O35     O    0.39255   0.37556   0.27076   1.000
    O36     O    0.23499   0.40685   0.30449   1.000
    O37     O    0.12235   0.42893   0.35533   1.000
    O38     O    0.00787   0.46612   0.38307   1.000
    O39     O    0.02781   0.39174   0.41736   1.000
    O40     O    0.97215   0.60831   0.58257   1.000
    O41     O    0.99207   0.53397   0.61688   1.000
    O42     O    0.87760   0.57112   0.64465   1.000
    O43     O    0.76497   0.59313   0.69549   1.000
    O44     O    0.60742   0.62438   0.72920   1.000
    O45     O    0.69612   0.57001   0.74405   1.000
    O46     O    0.42981   0.30205   0.75694   1.000
    O47     O    0.37556   0.39089   0.77168   1.000
    O48     O    0.40597   0.23392   0.80554   1.000
    O49     O    0.42709   0.12209   0.85638   1.000
    O50     O    0.46400   0.00776   0.88419   1.000
    O51     O    0.38975   0.02774   0.91857   1.000
    N52     N    0.45278   0.71079   0.87164   1.000
    O53     O    0.53314   0.63871   0.82318   1.000
    O54     O    0.45746   0.81979   0.89506   1.000
    N55     N    0.71045   0.45496   0.37069   1.000
    O56     O    0.81965   0.45956   0.39400   1.000
    O57     O    0.63847   0.53525   0.32216   1.000
    N58     N    0.28953   0.54501   0.62928   1.000
    O59     O    0.36151   0.46470   0.67773   1.000
    O60     O    0.18032   0.54044   0.60595   1.000
    N61     N    0.24688   0.59709   0.03178   1.000
    O62     O    0.27401   0.44222   0.95860   1.000
    O63     O    0.40396   0.67979   0.07971   1.000
    N64     N    0.10572   0.89498   0.24986   1.000
    O65     O    0.16511   0.08591   0.29173   1.000
    O66     O    0.91514   0.83536   0.20766   1.000
    N67     N    0.89426   0.10499   0.75010   1.000
    O68     O    0.83486   0.91407   0.70823   1.000
    O69     O    0.08484   0.16460   0.79230   1.000
    N70     N    0.54720   0.28917   0.12822   1.000
    O71     O    0.54252   0.18016   0.10485   1.000
    O72     O    0.46684   0.36124   0.17653   1.000
    N73     N    0.40291   0.75311   0.46843   1.000
    O74     O    0.32028   0.59670   0.41995   1.000
    O75     O    0.55769   0.72534   0.54196   1.000
    N76     N    0.75309   0.40288   0.96793   1.000
    O77     O    0.59601   0.32017   0.92012   1.000
    O78     O    0.72596   0.55775   0.04123   1.000
    N79     N    0.59707   0.24685   0.53128   1.000
    O80     O    0.67969   0.40327   0.57988   1.000
    O81     O    0.44229   0.27463   0.45788   1.000
loop_
    _geom_bond_atom_site_label_1
    _geom_bond_atom_site_label_2
    _geom_bond_distance
    _geom_bond_site_symmetry_2
    _ccdc_geom_bond_type
    Zr27   O28       0.63422      .   S
    Zr11   O28       0.63422  1_545   S
    Zr11   O29       0.63970  1_545   S
    Zr26   O29       0.63970      .   S
    Zr26   O30       1.18386      .   S
    Zr2    O30       1.18386      .   S
    Zr2    O31       1.15768      .   S
    Zr20   O31       1.15768      .   S
    Zr21   O32       0.63001      .   S
    Zr8    O32       0.63001      .   S
    Zr20   O33       0.64091      .   S
    Zr8    O33       0.64091      .   S
    Zr10   O34       0.64104      .   S
    Zr24   O34       0.64104      .   S
    Zr10   O35       0.63223      .   S
    Zr25   O35       0.63223      .   S
    Zr24   O36       1.15749      .   S
    Zr3    O36       1.15749      .   S
    Zr3    O37       1.18569      .   S
    Zr22   O37       1.18569      .   S
    Zr22   O38       0.63976      .   S
    Zr9    O38       0.63976  1_655   S
    Zr9    O39       0.63425  1_655   S
    Zr23   O39       0.63425      .   S
    Zr15   O40       0.63402      .   S
    Zr5    O40       0.63402  1_455   S
    Zr5    O41       0.64011  1_455   S
    Zr14   O41       0.64011      .   S
    Zr14   O42       1.18539      .   S
    Zr1    O42       1.18539      .   S
    Zr1    O43       1.15753      .   S
    Zr16   O43       1.15753      .   S
    Zr17   O44       0.63220      .   S
    Zr6    O44       0.63220      .   S
    Zr16   O45       0.64103      .   S
    Zr6    O45       0.64103      .   S
    Zr4    O46       0.64095      .   S
    Zr12   O46       0.64095      .   S
    Zr4    O47       0.63232      .   S
    Zr13   O47       0.63232      .   S
    Zr12   O48       1.15840      .   S
    Zr0    O48       1.15840      .   S
    Zr0    O49       1.18382      .   S
    Zr18   O49       1.18382      .   S
    Zr18   O50       0.63973      .   S
    Zr7    O50       0.63973  1_565   S
    Zr7    O51       0.63416  1_565   S
    Zr19   O51       0.63416      .   S
    N52    O53       1.54862      .   S
    Zr6    O53       2.10313      .   S
    N52    O54       1.58273      .   S
    Zr7    O54       2.14598      .   S
    N55    O56       1.58334      .   S
    Zr9    O56       2.14742      .   S
    N55    O57       1.54933      .   S
    Zr8    O57       2.10655      .   S
    N58    O59       1.54809      .   S
    Zr4    O59       2.10230      .   S
    N58    O60       1.58345      .   S
    Zr5    O60       2.14757      .   S
    N61    O62       2.68809  1_554   S
    Zr0    O62       3.77499      .   S
    N61    O63       3.00245      .   S
    Zr2    O63       4.23413      .   S
    N64    O65       3.12349  1_565   S
    Zr3    O65       4.30621      .   S
    N64    O66       3.12464  1_455   S
    Zr2    O66       4.30718      .   S
    N67    O68       3.12337  1_545   S
    Zr1    O68       4.30605      .   S
    N67    O69       3.12468  1_655   S
    Zr0    O69       4.30728      .   S
    N70    O71       1.58214      .   S
    Zr11   O71       2.14562      .   S
    N70    O72       1.54600      .   S
    Zr10   O72       2.10790      .   S
    N73    O74       3.00145      .   S
    Zr3    O74       4.23266      .   S
    N73    O75       2.69147      .   S
    Zr1    O75       3.77947      .   S
    N76    O77       3.00087      .   S
    Zr0    O77       4.23244      .   S
    N76    O78       2.69028  1_556   S
    Zr2    O78       3.77727      .   S
    N79    O80       3.00292      .   S
    Zr1    O80       4.23451      .   S
    N79    O81       2.68930      .   S
    Zr3    O81       3.77736      .   S
