# CIF file generated by openbabel 2.4.90, see http://openbabel.sf.net
data_I
_chemical_name_common ''
_cell_length_a 15.254
_cell_length_b 13.761
_cell_length_c 22.276
_cell_angle_alpha 89.97
_cell_angle_beta 90.024
_cell_angle_gamma 90.154
_space_group_name_H-M_alt 'P 1'
_space_group_name_Hall 'P 1'
loop_
    _symmetry_equiv_pos_as_xyz
    x,y,z
loop_
    _atom_site_label
    _atom_site_type_symbol
    _atom_site_fract_x
    _atom_site_fract_y
    _atom_site_fract_z
    _atom_site_occupancy
    H0      H    0.48684   0.84464   0.67086   1.000
    H1      H    0.98685   0.84464   0.67086   1.000
    H2      H    0.05910   0.77100   0.70190   1.000
    H3      H    0.55911   0.77101   0.70190   1.000
    H4      H    0.37481   0.72464   0.67260   1.000
    H5      H    0.87481   0.72465   0.67260   1.000
    H6      H    0.44198   0.64887   0.71647   1.000
    H7      H    0.94198   0.64887   0.71647   1.000
    H8      H    0.04438   0.62248   0.63352   1.000
    H9      H    0.54439   0.62248   0.63352   1.000
    H10     H    0.43662   0.58435   0.61793   1.000
    H11     H    0.93663   0.58436   0.61793   1.000
    H12     H    0.02257   0.77063   0.56836   1.000
    H13     H    0.52258   0.77063   0.56836   1.000
    H14     H    0.41252   0.73598   0.55554   1.000
    H15     H    0.91253   0.73598   0.55554   1.000
    H16     H    0.46368   0.57867   0.51070   1.000
    H17     H    0.96369   0.57867   0.51071   1.000
    H18     H    0.07366   0.61272   0.52328   1.000
    H19     H    0.57366   0.61272   0.52328   1.000
    H20     H    0.44594   0.71925   0.43875   1.000
    H21     H    0.94595   0.71925   0.43875   1.000
    H22     H    0.05677   0.75098   0.44976   1.000
    H23     H    0.55678   0.75098   0.44976   1.000
    H24     H    0.50495   0.93858   0.90342   1.000
    H25     H    0.00000   0.93858   0.90341   1.000
    H26     H    0.40218   0.90458   0.91052   1.000
    H27     H    0.90217   0.90457   0.91052   1.000
    H28     H    0.01089   0.65660   0.17160   1.000
    H29     H    0.51089   0.65661   0.17160   1.000
    H30     H    0.44078   0.73240   0.20280   1.000
    H31     H    0.94079   0.73240   0.20288   1.000
    H32     H    0.12560   0.77374   0.17236   1.000
    H33     H    0.62561   0.77374   0.17236   1.000
    H34     H    0.06033   0.85169   0.21605   1.000
    H35     H    0.56034   0.85169   0.21605   1.000
    H36     H    0.45745   0.87891   0.13323   1.000
    H37     H    0.95746   0.87891   0.13323   1.000
    H38     H    0.06563   0.91519   0.11733   1.000
    H39     H    0.56564   0.91519   0.11730   1.000
    H40     H    0.47723   0.72983   0.06852   1.000
    H41     H    0.97723   0.72983   0.06852   1.000
    H42     H    0.08754   0.76299   0.05535   1.000
    H43     H    0.58756   0.76299   0.05535   1.000
    H44     H    0.03751   0.92088   0.01027   1.000
    H45     H    0.53753   0.92088   0.01027   1.000
    H46     H    0.42736   0.88776   0.02291   1.000
    H47     H    0.92735   0.88776   0.02291   1.000
    H48     H    0.05425   0.78003   0.93852   1.000
    H49     H    0.55427   0.78003   0.93852   1.000
    H50     H    0.44327   0.74907   0.94965   1.000
    H51     H    0.94327   0.74907   0.94960   1.000
    H52     H    0.99601   0.56098   0.40387   1.000
    H53     H    0.49600   0.56098   0.40387   1.000
    H54     H    0.09865   0.59570   0.41080   1.000
    H55     H    0.59865   0.59569   0.41080   1.000
    H56     H    0.01317   0.15534   0.32915   1.000
    H57     H    0.51317   0.15534   0.32910   1.000
    H58     H    0.44090   0.22898   0.29811   1.000
    H59     H    0.94092   0.22898   0.29811   1.000
    H60     H    0.12520   0.27534   0.32740   1.000
    H61     H    0.62520   0.27535   0.32740   1.000
    H62     H    0.05803   0.35112   0.28353   1.000
    H63     H    0.55803   0.35112   0.28353   1.000
    H64     H    0.45562   0.37752   0.36648   1.000
    H65     H    0.95564   0.37752   0.36648   1.000
    H66     H    0.06339   0.41564   0.38207   1.000
    H67     H    0.56339   0.41564   0.38207   1.000
    H68     H    0.47743   0.22936   0.43164   1.000
    H69     H    0.97745   0.22936   0.43164   1.000
    H70     H    0.08749   0.26401   0.44446   1.000
    H71     H    0.58749   0.26401   0.44446   1.000
    H72     H    0.03633   0.42132   0.48929   1.000
    H73     H    0.53634   0.42132   0.48929   1.000
    H74     H    0.42635   0.38728   0.47672   1.000
    H75     H    0.92636   0.38728   0.47672   1.000
    H76     H    0.05406   0.28074   0.56125   1.000
    H77     H    0.55407   0.28074   0.56125   1.000
    H78     H    0.44323   0.24901   0.55024   1.000
    H79     H    0.94324   0.24901   0.55024   1.000
    H80     H    0.99503   0.06141   0.09659   1.000
    H81     H    0.49504   0.06141   0.09659   1.000
    H82     H    0.09781   0.09540   0.08949   1.000
    H83     H    0.59781   0.09541   0.08949   1.000
    C84     C    0.51001   0.18993   0.04924   1.000
    N85     N    0.35445   0.71674   0.81751   1.000
    N86     N    0.85444   0.71674   0.81751   1.000
    N87     N    0.35874   0.95034   0.77960   1.000
    H88     H    0.48909   0.34339   0.82840   1.000
    H89     H    0.98910   0.34339   0.82840   1.000
    H90     H    0.05920   0.26759   0.79713   1.000
    H91     H    0.55921   0.26760   0.79713   1.000
    H92     H    0.37438   0.22624   0.82765   1.000
    H93     H    0.87438   0.22626   0.82765   1.000
    H94     H    0.43966   0.14830   0.78396   1.000
    H95     H    0.93965   0.14830   0.78396   1.000
    H96     H    0.04253   0.12108   0.86670   1.000
    H97     H    0.54256   0.12109   0.86678   1.000
    H98     H    0.43437   0.08480   0.88267   1.000
    H99     H    0.93436   0.08481   0.88268   1.000
    H100    H    0.02276   0.27016   0.93149   1.000
    H101    H    0.52277   0.27017   0.93149   1.000
    H102    H    0.41244   0.23700   0.94460   1.000
    H103    H    0.91245   0.23701   0.94466   1.000
    H104    H    0.46247   0.07911   0.98973   1.000
    H105    H    0.96247   0.07912   0.98974   1.000
    H106    H    0.07263   0.11223   0.97710   1.000
    H107    H    0.57265   0.11224   0.97710   1.000
    H108    H    0.44573   0.21996   0.06149   1.000
    H109    H    0.94575   0.21997   0.06149   1.000
    H110    H    0.05673   0.25091   0.05036   1.000
    H111    H    0.55673   0.25092   0.05037   1.000
    H112    H    0.50400   0.43901   0.59614   1.000
    H113    H    0.00000   0.43901   0.59614   1.000
    H114    H    0.40136   0.40430   0.58917   1.000
    H115    H    0.90136   0.40429   0.58918   1.000
    C116    C    0.44299   0.70114   0.67929   1.000
    C117    C    0.94299   0.70114   0.67929   1.000
    C118    C    0.97789   0.64962   0.62369   1.000
    C119    C    0.47790   0.64962   0.62369   1.000
    C120    C    0.47858   0.70713   0.56480   1.000
    C121    C    0.97859   0.70713   0.56487   1.000
    C122    C    0.00801   0.64214   0.51290   1.000
    C123    C    0.50801   0.64214   0.51294   1.000
    C124    C    0.01040   0.68968   0.45102   1.000
    C125    C    0.51041   0.68967   0.45102   1.000
    C126    C    0.05796   0.79897   0.17917   1.000
    C127    C    0.55797   0.79897   0.17917   1.000
    C128    C    0.52353   0.85063   0.12339   1.000
    C129    C    0.00000   0.85062   0.12339   1.000
    C130    C    0.02184   0.79275   0.06473   1.000
    C131    C    0.52186   0.79275   0.06474   1.000
    C132    C    0.49279   0.85777   0.01263   1.000
    C133    C    0.99279   0.85777   0.01262   1.000
    C134    C    0.48998   0.81006   0.95070   1.000
    C135    C    0.98998   0.81006   0.95077   1.000
    C136    C    0.05702   0.29885   0.32071   1.000
    C137    C    0.55702   0.29885   0.32071   1.000
    C138    C    0.52211   0.35037   0.37631   1.000
    C139    C    0.00000   0.35037   0.37630   1.000
    C140    C    0.02143   0.29287   0.43513   1.000
    C141    C    0.52143   0.29286   0.43513   1.000
    C142    C    0.49200   0.35786   0.48707   1.000
    C143    C    0.99201   0.35786   0.48707   1.000
    C144    C    0.48960   0.31031   0.54898   1.000
    C145    C    0.98961   0.31031   0.54898   1.000
    C146    C    0.44203   0.20102   0.82080   1.000
    C147    C    0.94202   0.20102   0.82084   1.000
    C148    C    0.97645   0.14937   0.87662   1.000
    C149    C    0.47647   0.14937   0.87662   1.000
    C150    C    0.47814   0.20725   0.93527   1.000
    C151    C    0.97815   0.20725   0.93527   1.000
    C152    C    0.00719   0.14223   0.98738   1.000
    C153    C    0.50721   0.14223   0.98738   1.000
    C154    C    0.01001   0.18993   0.04920   1.000
    N155    N    0.85878   0.95029   0.77950   1.000
    N156    N    0.07784   0.95326   0.78654   1.000
    N157    N    0.57789   0.95311   0.78640   1.000
    N158    N    0.07724   0.71250   0.81779   1.000
    N159    N    0.57727   0.71255   0.81774   1.000
    N160    N    0.49347   0.78705   0.69969   1.000
    N161    N    0.99348   0.78704   0.69969   1.000
    N162    N    0.46432   0.87899   0.90289   1.000
    N163    N    0.96432   0.87899   0.90289   1.000
    N164    N    0.14525   0.78365   0.31884   1.000
    N165    N    0.64526   0.78362   0.31880   1.000
    N166    N    0.14086   0.55021   0.28010   1.000
    N167    N    0.64087   0.55022   0.28017   1.000
    N168    N    0.42186   0.54798   0.28722   1.000
    N169    N    0.92187   0.54798   0.28721   1.000
    N170    N    0.42297   0.78768   0.31950   1.000
    N171    N    0.92299   0.78767   0.31954   1.000
    N172    N    0.00600   0.71458   0.20027   1.000
    N173    N    0.50600   0.71458   0.20028   1.000
    N174    N    0.03632   0.62081   0.40325   1.000
    N175    N    0.53632   0.62081   0.40325   1.000
    N176    N    0.14557   0.28322   0.18250   1.000
    N177    N    0.64556   0.28324   0.18250   1.000
    N178    N    0.14127   0.04963   0.22028   1.000
    N179    N    0.64124   0.04963   0.22033   1.000
    N180    N    0.42218   0.04675   0.21352   1.000
    N181    N    0.92214   0.04680   0.21353   1.000
    N182    N    0.42274   0.28742   0.18229   1.000
    N183    N    0.92273   0.28742   0.18228   1.000
    N184    N    0.00653   0.21294   0.30032   1.000
    N185    N    0.50653   0.21294   0.30032   1.000
    N186    N    0.03566   0.12099   0.09712   1.000
    N187    N    0.53567   0.12099   0.09712   1.000
    N188    N    0.35477   0.21626   0.68112   1.000
    N189    N    0.85476   0.21634   0.68122   1.000
    N190    N    0.35910   0.44978   0.71979   1.000
    N191    N    0.85912   0.44977   0.71981   1.000
    N192    N    0.07812   0.45203   0.71279   1.000
    N193    N    0.57812   0.45201   0.71280   1.000
    N194    N    0.07702   0.21233   0.68046   1.000
    N195    N    0.57703   0.21239   0.68052   1.000
    N196    N    0.49398   0.28542   0.79973   1.000
    N197    N    0.99399   0.28541   0.79973   1.000
    N198    N    0.46368   0.37917   0.59675   1.000
    N199    N    0.96369   0.37917   0.59675   1.000
loop_
    _geom_bond_atom_site_label_1
    _geom_bond_atom_site_label_2
    _geom_bond_distance
    _geom_bond_site_symmetry_2
    _ccdc_geom_bond_type
    H45    C132      1.10433      .   S
    H44    C133      1.10411  1_455   S
    C133   H47       1.10533      .   S
    C133   C130      1.53138  1_655   S
    C133   C135      1.52707  1_554   S
    C132   H46       1.10530      .   S
    C132   C131      1.53142      .   S
    C132   C134      1.52865  1_554   S
    C154   H110      1.09982      .   S
    C154   H109      1.09961  1_455   S
    C154   N186      1.48093      .   S
    C154   C152      1.52640  1_554   S
    C84    H111      1.09979      .   S
    C84    H108      1.09970      .   S
    C84    N187      1.48031      .   S
    C84    C153      1.52722  1_554   S
    H43    C131      1.10375      .   S
    H42    C130      1.10372      .   S
    C130   H41       1.10302  1_455   S
    C130   C129      1.56707      .   S
    C131   H40       1.10322      .   S
    C131   C128      1.53066      .   S
    H83    N187      1.02638      .   S
    H82    N186      1.02637      .   S
    H80    N186      1.02657  1_655   S
    H81    N187      1.02657      .   S
    H39    C128      1.10324      .   S
    H38    C129      1.34344      .   S
    C128   H36       1.10369      .   S
    C128   C127      1.52504      .   S
    C129   H37       0.78886  1_455   S
    C129   C126      1.68301      .   S
    H29    N173      1.02521      .   S
    H28    N172      1.02509      .   S
    H33    C127      1.10010      .   S
    H32    C126      1.10009      .   S
    C127   N173      1.48084      .   S
    C127   H35       1.09686      .   S
    C126   N172      1.48078      .   S
    C126   H34       1.09683      .   S
    N172   H31       1.02672  1_455   S
    N173   H30       1.02693      .   S
    H62    C136      1.09671      .   S
    H63    C137      1.09674      .   S
    H58    N185      1.02697      .   S
    H59    N184      1.02664  1_655   S
    N184   C136      1.48072      .   S
    N184   H56       1.02504      .   S
    N185   C137      1.48071      .   S
    N185   H57       1.02430      .   S
    C136   H60       1.10004      .   S
    C136   C139      1.67263      .   S
    C137   H61       1.10004      .   S
    C137   C138      1.52438      .   S
    H65    C139      0.80402  1_655   S
    H64    C138      1.10359      .   S
    C139   H66       1.32422      .   S
    C139   C140      1.56534      .   S
    C138   H67       1.10307      .   S
    C138   C141      1.53036      .   S
    N174   H52       1.02648  1_455   S
    N174   H54       1.02624      .   S
    N174   C124      1.47990      .   S
    N175   H53       1.02649      .   S
    N175   H55       1.02625      .   S
    N175   C125      1.47988      .   S
    H68    C141      1.10322      .   S
    H69    C140      1.10302  1_655   S
    C140   H70       1.10372      .   S
    C140   C143      1.53090  1_455   S
    C141   H71       1.10372      .   S
    C141   C142      1.53095      .   S
    H20    C125      1.09970      .   S
    H21    C124      1.09939  1_655   S
    H23    C125      1.09982      .   S
    H22    C124      1.09982      .   S
    C125   C123      1.52668      .   S
    C124   C122      1.52588      .   S
    H75    C143      1.10532      .   S
    H74    C142      1.10533      .   S
    C142   H73       1.10427      .   S
    C142   C144      1.52652      .   S
    C143   H72       1.10407  1_655   S
    C143   C145      1.52657      .   S
    H16    C123      1.10428      .   S
    H17    C122      1.10405  1_655   S
    C122   H18       1.10548      .   S
    C122   C121      1.53138  1_455   S
    C123   H19       1.10529      .   S
    C123   C120      1.52960      .   S
    C145   H79       1.09982      .   S
    C145   H76       1.09937  1_655   S
    C145   N199      1.47991      .   S
    C144   H78       1.09982      .   S
    C144   H77       1.09969      .   S
    C144   N198      1.47988      .   S
    H15    C121      1.10371      .   S
    H14    C120      1.10342      .   S
    C120   H13       1.10333      .   S
    C120   C119      1.53171      .   S
    C121   H12       1.10303  1_655   S
    C121   C118      1.53036      .   S
    H114   N198      1.02633      .   S
    H115   N199      1.02632      .   S
    H113   N199      0.99124  1_455   S
    H112   N198      1.02649      .   S
    H10    C119      1.10307      .   S
    H11    C118      1.10287      .   S
    C118   H8        1.10357  1_655   S
    C118   C117      1.52430      .   S
    C119   H9        1.10359      .   S
    C119   C116      1.52437      .   S
    H0     N160      1.02505      .   S
    H1     N161      1.02509      .   S
    H5     C117      1.10002      .   S
    H4     C116      1.10004      .   S
    C116   N160      1.48073      .   S
    C116   H6        1.09677      .   S
    C117   N161      1.48074      .   S
    C117   H7        1.09677      .   S
    N160   H3        1.02697      .   S
    N161   H2        1.02665  1_655   S
    H94    C146      1.09619      .   S
    H95    C147      1.09686      .   S
    H90    N197      1.02670  1_455   S
    H91    N196      1.02703      .   S
    N196   C146      1.48054      .   S
    N196   H88       1.02507      .   S
    N197   C147      1.48082      .   S
    N197   H89       1.02515      .   S
    C146   H92       1.10022      .   S
    C146   C149      1.52577      .   S
    C147   H93       1.10009      .   S
    C147   C148      1.52498      .   S
    H96    C148      1.10404  1_455   S
    H97    C149      1.10370      .   S
    C149   H98       1.10312      .   S
    C149   C150      1.53065      .   S
    C148   H99       1.10295      .   S
    C148   C151      1.53067      .   S
    N162   H24       1.02656      .   S
    N162   H26       1.02636      .   S
    N162   C134      1.47914      .   S
    N163   H25       0.98308  1_655   S
    N163   H27       1.02637      .   S
    N163   C135      1.48031      .   S
    H101   C150      1.10321      .   S
    H100   C151      1.10301  1_455   S
    C151   H103      1.10374      .   S
    C151   C152      1.53136  1_655   S
    C150   H102      1.10350      .   S
    C150   C153      1.53143      .   S
    H49    C134      1.09932      .   S
    H48    C135      1.09938  1_455   S
    H51    C135      1.09983      .   S
    H50    C134      1.09977      .   S
    H106   C152      1.10529      .   S
    H107   C153      1.10529      .   S
    C153   H104      1.10432      .   S
    C152   H105      1.10412  1_455   S
