# CIF file generated by openbabel 2.4.90, see http://openbabel.sf.net
data_I
_chemical_name_common ''
_cell_length_a 15.254
_cell_length_b 13.761
_cell_length_c 22.276
_cell_angle_alpha 89.97
_cell_angle_beta 90.024
_cell_angle_gamma 90.154
_space_group_name_H-M_alt 'P 1'
_space_group_name_Hall 'P 1'
loop_
    _symmetry_equiv_pos_as_xyz
    x,y,z
loop_
    _atom_site_label
    _atom_site_type_symbol
    _atom_site_fract_x
    _atom_site_fract_y
    _atom_site_fract_z
    _atom_site_occupancy
    Cd0     Cd   0.96592   0.83145   0.80083   1.000
    Cd1     Cd   0.03396   0.66917   0.30136   1.000
    Cd2     Cd   0.53395   0.66917   0.30136   1.000
    Cd3     Cd   0.03409   0.16853   0.19918   1.000
    Cd4     Cd   0.53409   0.16852   0.19918   1.000
    Cd5     Cd   0.46601   0.33081   0.69864   1.000
    Cd6     Cd   0.96604   0.33082   0.69860   1.000
    Ni7     Ni   0.21705   0.58110   0.76745   1.000
    Ni8     Ni   0.71706   0.58110   0.76740   1.000
    Ni9     Ni   0.28309   0.91933   0.26956   1.000
    Ni10    Ni   0.78309   0.91933   0.26956   1.000
    Ni11    Ni   0.28294   0.41888   0.23255   1.000
    Ni12    Ni   0.78294   0.41890   0.23254   1.000
    Ni13    Ni   0.21690   0.08065   0.73043   1.000
    Ni14    Ni   0.71692   0.08068   0.73047   1.000
    Cd15    Cd   0.46591   0.83145   0.80083   1.000
    C16     C    0.30096   0.66300   0.79896   1.000
    C17     C    0.80096   0.66300   0.79890   1.000
    C18     C    0.30332   0.00000   0.76070   1.000
    C19     C    0.80335   0.00000   0.76060   1.000
    C20     C    0.13211   0.00000   0.76428   1.000
    C21     C    0.63208   0.00000   0.76420   1.000
    C22     C    0.13132   0.16043   0.69963   1.000
    C23     C    0.63132   0.16041   0.69962   1.000
    C24     C    0.19895   0.83755   0.30077   1.000
    C25     C    0.69896   0.83755   0.30078   1.000
    C26     C    0.19637   0.49912   0.26199   1.000
    C27     C    0.69637   0.49911   0.26200   1.000
    C28     C    0.36763   0.49823   0.26568   1.000
    C29     C    0.86765   0.49820   0.26560   1.000
    C30     C    0.36858   0.33915   0.20170   1.000
    C31     C    0.86859   0.33914   0.20178   1.000
    C32     C    0.19904   0.33699   0.20104   1.000
    C33     C    0.69904   0.33698   0.20105   1.000
    C34     C    0.19666   0.99912   0.23930   1.000
    C35     C    0.69667   0.99912   0.23929   1.000
    C36     C    0.36790   0.99786   0.23576   1.000
    C37     C    0.86791   0.99788   0.23578   1.000
    C38     C    0.36866   0.83958   0.30040   1.000
    C39     C    0.86869   0.83957   0.30036   1.000
    C40     C    0.30103   0.16242   0.69920   1.000
    C41     C    0.80102   0.16244   0.69923   1.000
    C42     C    0.30361   0.50089   0.73797   1.000
    C43     C    0.80363   0.50087   0.73800   1.000
    C44     C    0.13236   0.50178   0.73432   1.000
    C45     C    0.63238   0.50176   0.73431   1.000
    C46     C    0.13138   0.66083   0.79823   1.000
    C47     C    0.63141   0.66082   0.79824   1.000
loop_
    _geom_bond_atom_site_label_1
    _geom_bond_atom_site_label_2
    _geom_bond_distance
    _geom_bond_site_symmetry_2
    _ccdc_geom_bond_type
    C32    Ni11      1.84199      .   S
    C33    Ni12      1.84201      .   S
    C30    Ni11      1.84174      .   S
    C31    Ni12      1.84119      .   S
    Ni12   C27       1.84461      .   S
    Ni12   C29       1.84267      .   S
    Ni11   C26       1.84457      .   S
    Ni11   C28       1.84346      .   S
    C36    Ni9       1.84411      .   S
    C37    Ni10      1.84412      .   S
    C35    Ni10      1.84508      .   S
    C34    Ni9       1.84518      .   S
    Ni9    C38       1.84014      .   S
    Ni9    C24       1.84099      .   S
    Ni10   C39       1.84021      .   S
    Ni10   C25       1.84101      .   S
    C40    Ni13      1.84100      .   S
    C41    Ni14      1.84072      .   S
    C23    Ni14      1.84032      .   S
    C22    Ni13      1.84022      .   S
    Ni13   C18       1.85211      .   S
    Ni13   C20       1.86159      .   S
    Ni14   C19       1.85142      .   S
    Ni14   C21       1.86126      .   S
    C45    Ni8       1.84299      .   S
    C44    Ni7       1.84325      .   S
    C42    Ni7       1.84451      .   S
    C43    Ni8       1.84414      .   S
    Ni8    C47       1.84163      .   S
    Ni8    C17       1.84193      .   S
    Ni7    C46       1.84140      .   S
    Ni7    C16       1.84224      .   S
