# CIF file generated by openbabel 2.4.90, see http://openbabel.sf.net
data_I
_chemical_name_common ''
_cell_length_a 15.254
_cell_length_b 13.761
_cell_length_c 22.276
_cell_angle_alpha 89.97
_cell_angle_beta 90.024
_cell_angle_gamma 90.154
_space_group_name_H-M_alt 'P 1'
_space_group_name_Hall 'P 1'
loop_
    _symmetry_equiv_pos_as_xyz
    x,y,z
loop_
    _atom_site_label
    _atom_site_type_symbol
    _atom_site_fract_x
    _atom_site_fract_y
    _atom_site_fract_z
    _atom_site_occupancy
    N0      N    0.50721   0.81838   0.06220   1.000
    N1      N    0.99339   0.68183   0.56234   1.000
    N2      N    0.50662   0.31816   0.43766   1.000
    N3      N    0.85912   0.44977   0.71981   1.000
    N4      N    0.49339   0.68183   0.56233   1.000
    N5      N    0.49278   0.18161   0.93779   1.000
    N6      N    0.00585   0.81838   0.06221   1.000
    N7      N    0.35910   0.44978   0.71979   1.000
    N8      N    0.99278   0.18161   0.93779   1.000
    N9      N    0.14525   0.78365   0.31884   1.000
    N10     N    0.00538   0.31816   0.43766   1.000
    N11     N    0.57812   0.45201   0.71280   1.000
    N12     N    0.14557   0.28322   0.18250   1.000
    N13     N    0.35477   0.21626   0.68112   1.000
    N14     N    0.92273   0.28742   0.18228   1.000
    N15     N    0.85476   0.21634   0.68122   1.000
    N16     N    0.92214   0.04680   0.21353   1.000
    N17     N    0.35874   0.95034   0.77960   1.000
    N18     N    0.42218   0.04675   0.21352   1.000
    N19     N    0.42274   0.28742   0.18229   1.000
    N20     N    0.07812   0.45203   0.71279   1.000
    N21     N    0.85444   0.71674   0.81751   1.000
    N22     N    0.35445   0.71674   0.81751   1.000
    N23     N    0.64556   0.28324   0.18250   1.000
    N24     N    0.92187   0.54798   0.28721   1.000
    N25     N    0.64526   0.78362   0.31880   1.000
    N26     N    0.07784   0.95326   0.78654   1.000
    N27     N    0.07702   0.21233   0.68046   1.000
    N28     N    0.92299   0.78767   0.31954   1.000
    N29     N    0.07724   0.71250   0.81779   1.000
    N30     N    0.42297   0.78768   0.31950   1.000
    N31     N    0.57727   0.71255   0.81774   1.000
    N32     N    0.64087   0.55022   0.28017   1.000
    N33     N    0.14127   0.04963   0.22028   1.000
    N34     N    0.57789   0.95311   0.78640   1.000
    N35     N    0.14086   0.55021   0.28010   1.000
    N36     N    0.57703   0.21239   0.68052   1.000
    N37     N    0.42186   0.54798   0.28722   1.000
    N38     N    0.64124   0.04963   0.22033   1.000
    N39     N    0.85878   0.95029   0.77950   1.000
    Zr40    Zr   0.21707   0.58152   0.76739   1.000
    O41     O    0.28115   0.52204   0.74586   1.000
    O42     O    0.15393   0.64055   0.79014   1.000
    O43     O    0.27907   0.64241   0.79013   1.000
    O44     O    0.15438   0.52299   0.74278   1.000
    Zr45    Zr   0.71709   0.58151   0.76737   1.000
    O46     O    0.65395   0.64056   0.79012   1.000
    O47     O    0.78117   0.52203   0.74586   1.000
    O48     O    0.77908   0.64241   0.79011   1.000
    O49     O    0.65439   0.52298   0.74277   1.000
    Zr50    Zr   0.96604   0.33082   0.69860   1.000
    O51     O    0.00807   0.37627   0.70392   1.000
    O52     O    0.92431   0.28789   0.69208   1.000
    O53     O    0.97558   0.33370   0.62063   1.000
    O54     O    0.92595   0.37543   0.70655   1.000
    O55     O    0.97622   0.28784   0.77104   1.000
    O56     O    0.00766   0.28639   0.69180   1.000
    Zr57    Zr   0.21694   0.08070   0.73085   1.000
    O58     O    0.27914   0.14175   0.70824   1.000
    O59     O    0.15417   0.02282   0.75591   1.000
    O60     O    0.15377   0.14003   0.70805   1.000
    O61     O    0.28091   0.02173   0.75286   1.000
    Zr62    Zr   0.28291   0.41848   0.23259   1.000
    O63     O    0.22092   0.35757   0.20986   1.000
    O64     O    0.34606   0.35942   0.20987   1.000
    O65     O    0.34561   0.47701   0.25721   1.000
    O66     O    0.21883   0.47796   0.25408   1.000
    Zr67    Zr   0.78307   0.91869   0.26915   1.000
    O68     O    0.84582   0.97663   0.24412   1.000
    O69     O    0.71908   0.97784   0.24711   1.000
    O70     O    0.84624   0.85967   0.29195   1.000
    O71     O    0.72088   0.85789   0.29172   1.000
    Zr72    Zr   0.78292   0.41847   0.23259   1.000
    O73     O    0.72092   0.35757   0.20987   1.000
    O74     O    0.71883   0.47796   0.25411   1.000
    O75     O    0.84606   0.35941   0.20987   1.000
    O76     O    0.84562   0.47700   0.25720   1.000
    Zr77    Zr   0.28305   0.91869   0.26916   1.000
    O78     O    0.34583   0.97661   0.24412   1.000
    O79     O    0.21908   0.97785   0.24710   1.000
    O80     O    0.34622   0.85967   0.29194   1.000
    O81     O    0.22086   0.85791   0.29174   1.000
    Zr82    Zr   0.71694   0.08071   0.73082   1.000
    O83     O    0.65377   0.14005   0.70806   1.000
    O84     O    0.77913   0.14179   0.70827   1.000
    O85     O    0.78093   0.02171   0.75280   1.000
    O86     O    0.65419   0.02277   0.75584   1.000
    Zr87    Zr   0.96592   0.83145   0.80083   1.000
    O88     O    0.97623   0.78850   0.72856   1.000
    O89     O    0.00766   0.78685   0.80719   1.000
    O90     O    0.00789   0.87713   0.79547   1.000
    O91     O    0.92574   0.87602   0.79283   1.000
    O92     O    0.92411   0.78844   0.80708   1.000
    O93     O    0.97570   0.83413   0.87893   1.000
    Zr94    Zr   0.03396   0.66917   0.30136   1.000
    O95     O    0.99234   0.71361   0.30818   1.000
    O96     O    0.99193   0.62372   0.29605   1.000
    O97     O    0.07405   0.62456   0.29339   1.000
    O98     O    0.07569   0.71210   0.30791   1.000
    O99     O    0.02411   0.66629   0.37934   1.000
    O100    O    0.02344   0.71215   0.22894   1.000
    Zr101   Zr   0.03409   0.16853   0.19918   1.000
    O102    O    0.07589   0.21154   0.19292   1.000
    O103    O    0.07428   0.12394   0.20709   1.000
    O104    O    0.02396   0.16586   0.12108   1.000
    O105    O    0.99233   0.21311   0.19284   1.000
    O106    O    0.99211   0.12288   0.20456   1.000
    O107    O    0.02347   0.21149   0.27144   1.000
    Zr108   Zr   0.53395   0.66917   0.30136   1.000
    O109    O    0.57569   0.71209   0.30790   1.000
    O110    O    0.49192   0.62372   0.29606   1.000
    O111    O    0.49234   0.71361   0.30816   1.000
    O112    O    0.57405   0.62457   0.29341   1.000
    O113    O    0.52411   0.66629   0.37934   1.000
    O114    O    0.52378   0.71215   0.22894   1.000
    Zr115   Zr   0.46591   0.83145   0.80083   1.000
    O116    O    0.42572   0.87603   0.79287   1.000
    O117    O    0.42411   0.78843   0.80708   1.000
    O118    O    0.47603   0.83412   0.87893   1.000
    O119    O    0.50790   0.87707   0.79542   1.000
    O120    O    0.47622   0.78849   0.72856   1.000
    O121    O    0.50767   0.78686   0.80717   1.000
    Zr122   Zr   0.53409   0.16852   0.19918   1.000
    O123    O    0.57428   0.12394   0.20711   1.000
    O124    O    0.57589   0.21154   0.19292   1.000
    O125    O    0.52396   0.16585   0.12108   1.000
    O126    O    0.49213   0.12286   0.20456   1.000
    O127    O    0.52378   0.21148   0.27144   1.000
    O128    O    0.49234   0.21311   0.19285   1.000
    Zr129   Zr   0.46601   0.33081   0.69864   1.000
    O130    O    0.42429   0.28786   0.69207   1.000
    O131    O    0.42592   0.37543   0.70657   1.000
    O132    O    0.50805   0.37626   0.70395   1.000
    O133    O    0.50764   0.28640   0.69185   1.000
    O134    O    0.47620   0.28784   0.77106   1.000
    O135    O    0.47587   0.33370   0.62066   1.000
loop_
    _geom_bond_atom_site_label_1
    _geom_bond_atom_site_label_2
    _geom_bond_distance
    _geom_bond_site_symmetry_2
    _ccdc_geom_bond_type
    Zr40   O41       1.36394      .   S
    N7     O41       1.65749      .   S
    Zr40   O42       1.36004      .   S
    N29    O42       1.65384      .   S
    Zr40   O43       1.35982      .   S
    N22    O43       1.65342      .   S
    Zr40   O44       1.36368      .   S
    N20    O44       1.65736      .   S
    Zr45   O46       1.36008      .   S
    N31    O46       1.65388      .   S
    Zr45   O47       1.36383      .   S
    N3     O47       1.65739      .   S
    Zr45   O48       1.35974      .   S
    N21    O48       1.65345      .   S
    Zr45   O49       1.36370      .   S
    N11    O49       1.65741      .   S
    Zr50   O51       0.90231  1_655   S
    N20    O51       1.50385      .   S
    Zr50   O52       0.87936      .   S
    N15    O52       1.46560      .   S
    Zr50   O53       1.74333      .   S
    N10    O53       4.10708  1_455   S
    Zr50   O54       0.88571      .   S
    N3     O54       1.47618      .   S
    Zr50   O55       1.72541      .   S
    N8     O55       3.99928      .   S
    Zr50   O56       0.89561  1_655   S
    N27    O56       1.49269      .   S
    Zr57   O58       1.36204      .   S
    N13    O58       1.65558      .   S
    Zr57   O59       1.36331      .   S
    N26    O59       1.65277  1_565   S
    Zr57   O60       1.36247      .   S
    N27    O60       1.65625      .   S
    Zr57   O61       1.36188      .   S
    N17    O61       1.65354  1_565   S
    Zr62   O63       1.35965      .   S
    N12    O63       1.65326      .   S
    Zr62   O64       1.36000      .   S
    N19    O64       1.65367      .   S
    Zr62   O65       1.36386      .   S
    N37    O65       1.65754      .   S
    Zr62   O66       1.36376      .   S
    N35    O66       1.65718      .   S
    Zr67   O68       1.36346      .   S
    N16    O68       1.65716  1_545   S
    Zr67   O69       1.36373      .   S
    N38    O69       1.65730  1_545   S
    Zr67   O70       1.35995      .   S
    N28    O70       1.65371      .   S
    Zr67   O71       1.35950      .   S
    N25    O71       1.65299      .   S
    Zr72   O73       1.35963      .   S
    N23    O73       1.65323      .   S
    Zr72   O74       1.36406      .   S
    N32    O74       1.65762      .   S
    Zr72   O75       1.35988      .   S
    N14    O75       1.65369      .   S
    Zr72   O76       1.36378      .   S
    N24    O76       1.65766      .   S
    Zr77   O78       1.36357      .   S
    N18    O78       1.65729  1_545   S
    Zr77   O79       1.36373      .   S
    N33    O79       1.65731  1_545   S
    Zr77   O80       1.35980      .   S
    N30    O80       1.65345      .   S
    Zr77   O81       1.35947      .   S
    N9     O81       1.65300      .   S
    Zr82   O83       1.36227      .   S
    N36    O83       1.65604      .   S
    Zr82   O84       1.36181      .   S
    N15    O84       1.65534      .   S
    Zr82   O85       1.36195      .   S
    N39    O85       1.65376  1_565   S
    Zr82   O86       1.36316      .   S
    N34    O86       1.65255  1_565   S
    Zr87   O88       1.72260      .   S
    N1     O88       3.99287      .   S
    Zr87   O89       0.89687  1_655   S
    N29    O89       1.49478      .   S
    Zr87   O90       0.90391  1_655   S
    N26    O90       1.50651      .   S
    Zr87   O91       0.88615      .   S
    N39    O91       1.47691      .   S
    Zr87   O92       0.88002      .   S
    N21    O92       1.46670      .   S
    Zr87   O93       1.74653      .   S
    N6     O93       4.11397  1_454   S
    Zr94   O95       0.89569  1_455   S
    N28    O95       1.49282      .   S
    Zr94   O96       0.90223  1_455   S
    N24    O96       1.50372      .   S
    Zr94   O97       0.88576      .   S
    N35    O97       1.47627      .   S
    Zr94   O98       0.87956      .   S
    N9     O98       1.46593      .   S
    Zr94   O99       1.74405      .   S
    N1     O99       4.10920  1_655   S
    Zr94   O100      1.72559      .   S
    N6     O100      3.99981      .   S
    Zr101  O102      0.87998      .   S
    N12    O102      1.46664      .   S
    Zr101  O103      0.88612      .   S
    N33    O103      1.47687      .   S
    Zr101  O104      1.74705      .   S
    N8     O104      4.11593  1_656   S
    Zr101  O105      0.89668  1_455   S
    N14    O105      1.49447      .   S
    Zr101  O106      0.90376  1_455   S
    N16    O106      1.50627      .   S
    Zr101  O107      1.72299      .   S
    N10    O107      3.99371      .   S
    Zr108  O109      0.87945      .   S
    N25    O109      1.46575      .   S
    Zr108  O110      0.90226      .   S
    N37    O110      1.50377      .   S
    Zr108  O111      0.89569      .   S
    N30    O111      1.49282      .   S
    Zr108  O112      0.88564      .   S
    N32    O112      1.47606      .   S
    Zr108  O113      1.74404      .   S
    N4     O113      4.10917      .   S
    Zr108  O114      1.72510      .   S
    N0     O114      3.99887      .   S
    Zr115  O116      0.88629      .   S
    N17    O116      1.47715      .   S
    Zr115  O117      0.87993      .   S
    N22    O117      1.46655      .   S
    Zr115  O118      1.74696      .   S
    N0     O118      4.11568  1_554   S
    Zr115  O119      0.90379      .   S
    N34    O119      1.50632      .   S
    Zr115  O120      1.72260      .   S
    N4     O120      3.99290      .   S
    Zr115  O121      0.89677      .   S
    N31    O121      1.49462      .   S
    Zr122  O123      0.88607      .   S
    N38    O123      1.47679      .   S
    Zr122  O124      0.87999      .   S
    N23    O124      1.46665      .   S
    Zr122  O125      1.74704      .   S
    N5     O125      4.11593  1_556   S
    Zr122  O126      0.90381      .   S
    N18    O126      1.50635      .   S
    Zr122  O127      1.72255      .   S
    N2     O127      3.99272      .   S
    Zr122  O128      0.89669      .   S
    N19    O128      1.49448      .   S
    Zr129  O130      0.87965      .   S
    N13    O130      1.46608      .   S
    Zr129  O131      0.88564      .   S
    N7     O131      1.47607      .   S
    Zr129  O132      0.90234      .   S
    N11    O132      1.50390      .   S
    Zr129  O133      0.89553      .   S
    N36    O133      1.49255      .   S
    Zr129  O134      1.72510      .   S
    N5     O134      3.99877      .   S
    Zr129  O135      1.74409      .   S
    N2     O135      4.10930      .   S
