# CIF file generated by openbabel 2.4.90, see http://openbabel.sf.net
data_I
_chemical_name_common ''
_cell_length_a 15.254
_cell_length_b 13.761
_cell_length_c 22.276
_cell_angle_alpha 89.97
_cell_angle_beta 90.024
_cell_angle_gamma 90.154
_space_group_name_H-M_alt 'P 1'
_space_group_name_Hall 'P 1'
loop_
    _symmetry_equiv_pos_as_xyz
    x,y,z
loop_
    _atom_site_label
    _atom_site_type_symbol
    _atom_site_fract_x
    _atom_site_fract_y
    _atom_site_fract_z
    _atom_site_occupancy
    Zr0     Zr   0.46591   0.83145   0.80083   1.000
    Zr1     Zr   0.96592   0.83145   0.80083   1.000
    Zr2     Zr   0.03396   0.66917   0.30136   1.000
    Zr3     Zr   0.53395   0.66917   0.30136   1.000
    Zr4     Zr   0.03409   0.16853   0.19918   1.000
    Zr5     Zr   0.53409   0.16852   0.19918   1.000
    Zr6     Zr   0.46601   0.33081   0.69864   1.000
    Zr7     Zr   0.96604   0.33082   0.69860   1.000
    Zr8     Zr   0.21705   0.58110   0.76745   1.000
    Zr9     Zr   0.71706   0.58110   0.76740   1.000
    Zr10    Zr   0.28309   0.91933   0.26956   1.000
    Zr11    Zr   0.78309   0.91933   0.26956   1.000
    Zr12    Zr   0.28294   0.41888   0.23255   1.000
    Zr13    Zr   0.78294   0.41890   0.23254   1.000
    Zr14    Zr   0.21690   0.08065   0.73043   1.000
    Zr15    Zr   0.71692   0.08068   0.73047   1.000
    Zr16    Zr   0.30096   0.66300   0.79896   1.000
    Zr17    Zr   0.80096   0.66300   0.79890   1.000
    Zr18    Zr   0.30332   0.00000   0.76070   1.000
    Zr19    Zr   0.80335   0.00000   0.76060   1.000
    Zr20    Zr   0.13211   0.00000   0.76428   1.000
    Zr21    Zr   0.63208   0.00000   0.76420   1.000
    Zr22    Zr   0.13132   0.16043   0.69963   1.000
    Zr23    Zr   0.63132   0.16041   0.69962   1.000
    Zr24    Zr   0.19895   0.83755   0.30077   1.000
    Zr25    Zr   0.69896   0.83755   0.30078   1.000
    Zr26    Zr   0.19637   0.49912   0.26199   1.000
    Zr27    Zr   0.69637   0.49911   0.26200   1.000
    Zr28    Zr   0.36763   0.49823   0.26568   1.000
    Zr29    Zr   0.86765   0.49820   0.26560   1.000
    Zr30    Zr   0.36858   0.33915   0.20170   1.000
    Zr31    Zr   0.86859   0.33914   0.20178   1.000
    Zr32    Zr   0.19904   0.33699   0.20104   1.000
    Zr33    Zr   0.69904   0.33698   0.20105   1.000
    Zr34    Zr   0.19666   0.99912   0.23930   1.000
    Zr35    Zr   0.69667   0.99912   0.23929   1.000
    Zr36    Zr   0.36790   0.99786   0.23576   1.000
    Zr37    Zr   0.86791   0.99788   0.23578   1.000
    Zr38    Zr   0.36866   0.83958   0.30040   1.000
    Zr39    Zr   0.86869   0.83957   0.30036   1.000
    Zr40    Zr   0.30103   0.16242   0.69920   1.000
    Zr41    Zr   0.80102   0.16244   0.69923   1.000
    Zr42    Zr   0.30361   0.50089   0.73797   1.000
    Zr43    Zr   0.80363   0.50087   0.73800   1.000
    Zr44    Zr   0.13236   0.50178   0.73432   1.000
    Zr45    Zr   0.63238   0.50176   0.73431   1.000
    Zr46    Zr   0.13138   0.66083   0.79823   1.000
    Zr47    Zr   0.63141   0.66082   0.79824   1.000
    O48     O    0.24099   0.37794   0.21680   1.000
    O49     O    0.74099   0.37794   0.21680   1.000
    O50     O    0.32576   0.37902   0.21713   1.000
    O51     O    0.82576   0.37902   0.21716   1.000
    O52     O    0.73965   0.45900   0.24727   1.000
    O53     O    0.82529   0.45855   0.24907   1.000
    O54     O    0.23965   0.45900   0.24727   1.000
    O55     O    0.32529   0.45856   0.24912   1.000
    O56     O    0.32549   0.95859   0.25266   1.000
    O57     O    0.82550   0.95860   0.25267   1.000
    O58     O    0.73988   0.95922   0.25443   1.000
    O59     O    0.23987   0.95923   0.25443   1.000
    O60     O    0.32587   0.87945   0.28498   1.000
    O61     O    0.24102   0.87844   0.28517   1.000
    O62     O    0.82589   0.87945   0.28496   1.000
    O63     O    0.74103   0.87844   0.28517   1.000
    O64     O    0.25897   0.12154   0.71481   1.000
    O65     O    0.75897   0.12156   0.71485   1.000
    O66     O    0.67412   0.12055   0.71505   1.000
    O67     O    0.17411   0.12054   0.71503   1.000
    O68     O    0.26011   0.04032   0.74557   1.000
    O69     O    0.17451   0.04032   0.74735   1.000
    O70     O    0.76013   0.04034   0.74554   1.000
    O71     O    0.67450   0.04034   0.74734   1.000
    O72     O    0.67472   0.54143   0.75085   1.000
    O73     O    0.17470   0.54144   0.75089   1.000
    O74     O    0.26033   0.54099   0.75271   1.000
    O75     O    0.76035   0.54098   0.75270   1.000
    O76     O    0.67424   0.62096   0.78282   1.000
    O77     O    0.75901   0.62205   0.78315   1.000
    O78     O    0.17422   0.62096   0.78284   1.000
    O79     O    0.25901   0.62205   0.78320   1.000
    N80     N    0.50721   0.81838   0.06220   1.000
    O81     O    0.51360   0.75513   0.15651   1.000
    O82     O    0.48616   0.83680   0.95703   1.000
    N83     N    0.99339   0.68183   0.56234   1.000
    O84     O    0.01427   0.66341   0.45732   1.000
    O85     O    0.98655   0.74554   0.65630   1.000
    N86     N    0.50662   0.31816   0.43766   1.000
    O87     O    0.51347   0.25444   0.34371   1.000
    O88     O    0.48573   0.33658   0.54268   1.000
    N89     N    0.85912   0.44977   0.71981   1.000
    O90     O    0.84525   0.46255   0.72436   1.000
    O91     O    0.88585   0.42004   0.71451   1.000
    N92     N    0.49339   0.68183   0.56233   1.000
    O93     O    0.51427   0.66341   0.45732   1.000
    O94     O    0.48654   0.74554   0.65630   1.000
    N95     N    0.49278   0.18161   0.93779   1.000
    O96     O    0.51383   0.16319   0.04297   1.000
    O97     O    0.48639   0.24486   0.84349   1.000
    N98     N    0.00585   0.81838   0.06221   1.000
    O99     O    0.01292   0.75513   0.15651   1.000
    O100    O    0.98548   0.83680   0.95703   1.000
    N101    N    0.35910   0.44978   0.71979   1.000
    O102    O    0.34522   0.46256   0.72434   1.000
    O103    O    0.38583   0.42004   0.71450   1.000
    N104    N    0.99278   0.18161   0.93779   1.000
    O105    O    0.01383   0.16319   0.04297   1.000
    O106    O    0.98640   0.24486   0.84348   1.000
    N107    N    0.14525   0.78365   0.31884   1.000
    O108    O    0.15867   0.79713   0.31432   1.000
    O109    O    0.11743   0.75503   0.31447   1.000
    N110    N    0.00538   0.31816   0.43766   1.000
    O111    O    0.01284   0.25445   0.34371   1.000
    O112    O    0.98512   0.33658   0.54267   1.000
    N113    N    0.57812   0.45201   0.71280   1.000
    O114    O    0.59168   0.46445   0.71818   1.000
    O115    O    0.55009   0.42171   0.70926   1.000
    N116    N    0.14557   0.28322   0.18250   1.000
    O117    O    0.15894   0.29666   0.18714   1.000
    O118    O    0.11770   0.25455   0.18667   1.000
    N119    N    0.35477   0.21626   0.68112   1.000
    O120    O    0.38258   0.24490   0.68550   1.000
    O121    O    0.34133   0.20280   0.68564   1.000
    N122    N    0.92273   0.28742   0.18228   1.000
    O123    O    0.95057   0.25770   0.18651   1.000
    O124    O    0.90920   0.30035   0.18715   1.000
    N125    N    0.85476   0.21634   0.68122   1.000
    O126    O    0.88258   0.24496   0.68557   1.000
    O127    O    0.84132   0.20287   0.68572   1.000
    N128    N    0.92214   0.04680   0.21353   1.000
    O129    O    0.95013   0.07723   0.20994   1.000
    O130    O    0.90858   0.03457   0.21909   1.000
    N131    N    0.35874   0.95034   0.77960   1.000
    O132    O    0.34488   0.96276   0.77487   1.000
    O133    O    0.38553   0.92062   0.78491   1.000
    N134    N    0.42218   0.04675   0.21352   1.000
    O135    O    0.45016   0.07719   0.20993   1.000
    O136    O    0.40861   0.03453   0.21908   1.000
    N137    N    0.42274   0.28742   0.18229   1.000
    O138    O    0.40920   0.30036   0.18714   1.000
    O139    O    0.45058   0.25770   0.18651   1.000
    N140    N    0.07812   0.45203   0.71279   1.000
    O141    O    0.09168   0.46446   0.71817   1.000
    O142    O    0.05010   0.42172   0.70924   1.000
    N143    N    0.85444   0.71674   0.81751   1.000
    O144    O    0.84107   0.70331   0.81286   1.000
    O145    O    0.88231   0.74542   0.81334   1.000
    N146    N    0.35445   0.71674   0.81751   1.000
    O147    O    0.34108   0.70330   0.81287   1.000
    O148    O    0.38231   0.74541   0.81334   1.000
    N149    N    0.64556   0.28324   0.18250   1.000
    O150    O    0.61769   0.25456   0.18667   1.000
    O151    O    0.65893   0.29667   0.18714   1.000
    N152    N    0.92187   0.54798   0.28721   1.000
    O153    O    0.90832   0.53553   0.28181   1.000
    O154    O    0.94989   0.57828   0.29075   1.000
    N155    N    0.64526   0.78362   0.31880   1.000
    O156    O    0.61743   0.75501   0.31444   1.000
    O157    O    0.65869   0.79710   0.31429   1.000
    N158    N    0.07784   0.95326   0.78654   1.000
    O159    O    0.09141   0.96494   0.78097   1.000
    O160    O    0.04986   0.92281   0.79011   1.000
    N161    N    0.07702   0.21233   0.68046   1.000
    O162    O    0.09060   0.19936   0.68525   1.000
    O163    O    0.04928   0.24195   0.68499   1.000
    N164    N    0.92299   0.78767   0.31954   1.000
    O165    O    0.90941   0.80065   0.31475   1.000
    O166    O    0.95073   0.75805   0.31500   1.000
    N167    N    0.07724   0.71250   0.81779   1.000
    O168    O    0.09078   0.69958   0.81290   1.000
    O169    O    0.04941   0.74224   0.81355   1.000
    N170    N    0.42297   0.78768   0.31950   1.000
    O171    O    0.40939   0.80065   0.31473   1.000
    O172    O    0.45072   0.75805   0.31496   1.000
    N173    N    0.57727   0.71255   0.81774   1.000
    O174    O    0.59081   0.69961   0.81287   1.000
    O175    O    0.54943   0.74227   0.81351   1.000
    N176    N    0.64087   0.55022   0.28017   1.000
    O177    O    0.61414   0.57996   0.28547   1.000
    O178    O    0.65474   0.53745   0.27563   1.000
    N179    N    0.14127   0.04963   0.22028   1.000
    O180    O    0.11448   0.07936   0.21501   1.000
    O181    O    0.15512   0.03701   0.22504   1.000
    N182    N    0.57789   0.95311   0.78640   1.000
    O183    O    0.59144   0.96483   0.78085   1.000
    O184    O    0.54989   0.92269   0.79001   1.000
    N185    N    0.14086   0.55021   0.28010   1.000
    O186    O    0.11414   0.57995   0.28542   1.000
    O187    O    0.15474   0.53744   0.27557   1.000
    N188    N    0.57703   0.21239   0.68052   1.000
    O189    O    0.59060   0.19939   0.68529   1.000
    O190    O    0.54928   0.24199   0.68505   1.000
    N191    N    0.42186   0.54798   0.28722   1.000
    O192    O    0.40831   0.53554   0.28184   1.000
    O193    O    0.44989   0.57827   0.29075   1.000
    N194    N    0.64124   0.04963   0.22033   1.000
    O195    O    0.65510   0.03700   0.22507   1.000
    O196    O    0.61446   0.07935   0.21504   1.000
    N197    N    0.85878   0.95029   0.77950   1.000
    O198    O    0.84492   0.96272   0.77477   1.000
    O199    O    0.88556   0.92058   0.78483   1.000
loop_
    _geom_bond_atom_site_label_1
    _geom_bond_atom_site_label_2
    _geom_bond_distance
    _geom_bond_site_symmetry_2
    _ccdc_geom_bond_type
    Zr32   O48       0.92099      .   S
    Zr12   O48       0.92099      .   S
    Zr33   O49       0.92100      .   S
    Zr13   O49       0.92100      .   S
    Zr30   O50       0.92087      .   S
    Zr12   O50       0.92087      .   S
    Zr31   O51       0.92059      .   S
    Zr13   O51       0.92059      .   S
    Zr13   O52       0.92231      .   S
    Zr27   O52       0.92231      .   S
    Zr13   O53       0.92133      .   S
    Zr29   O53       0.92133      .   S
    Zr12   O54       0.92228      .   S
    Zr26   O54       0.92228      .   S
    Zr12   O55       0.92173      .   S
    Zr28   O55       0.92173      .   S
    Zr36   O56       0.92205      .   S
    Zr10   O56       0.92205      .   S
    Zr37   O57       0.92206      .   S
    Zr11   O57       0.92206      .   S
    Zr35   O58       0.92254      .   S
    Zr11   O58       0.92254      .   S
    Zr34   O59       0.92259      .   S
    Zr10   O59       0.92259      .   S
    Zr10   O60       0.92007      .   S
    Zr38   O60       0.92007      .   S
    Zr10   O61       0.92049      .   S
    Zr24   O61       0.92049      .   S
    Zr11   O62       0.92010      .   S
    Zr39   O62       0.92010      .   S
    Zr11   O63       0.92050      .   S
    Zr25   O63       0.92050      .   S
    Zr40   O64       0.92050      .   S
    Zr14   O64       0.92050      .   S
    Zr41   O65       0.92036      .   S
    Zr15   O65       0.92036      .   S
    Zr23   O66       0.92016      .   S
    Zr15   O66       0.92016      .   S
    Zr22   O67       0.92011      .   S
    Zr14   O67       0.92011      .   S
    Zr14   O68       0.92606      .   S
    Zr18   O68       0.92606      .   S
    Zr14   O69       0.93079      .   S
    Zr20   O69       0.93079      .   S
    Zr15   O70       0.92571      .   S
    Zr19   O70       0.92571      .   S
    Zr15   O71       0.93063      .   S
    Zr21   O71       0.93063      .   S
    Zr45   O72       0.92149      .   S
    Zr9    O72       0.92149      .   S
    Zr44   O73       0.92163      .   S
    Zr8    O73       0.92163      .   S
    Zr42   O74       0.92225      .   S
    Zr8    O74       0.92225      .   S
    Zr43   O75       0.92207      .   S
    Zr9    O75       0.92207      .   S
    Zr9    O76       0.92081      .   S
    Zr47   O76       0.92081      .   S
    Zr9    O77       0.92096      .   S
    Zr17   O77       0.92096      .   S
    Zr8    O78       0.92070      .   S
    Zr46   O78       0.92070      .   S
    Zr8    O79       0.92112      .   S
    Zr16   O79       0.92112      .   S
    N80    O81       2.27570      .   S
    Zr3    O81       3.45019      .   S
    N80    O82       2.37810  1_554   S
    Zr0    O82       3.49393      .   S
    N83    O84       2.37482  1_655   S
    Zr2    O84       3.48810      .   S
    N83    O85       2.27226      .   S
    Zr1    O85       3.44520      .   S
    N86    O87       2.27215      .   S
    Zr5    O87       3.44510      .   S
    N86    O88       2.37488      .   S
    Zr6    O88       3.48818      .   S
    N89    O90       0.29357      .   S
    Zr43   O90       0.88070      .   S
    N89    O91       0.59047      .   S
    Zr7    O91       1.77141      .   S
    N92    O93       2.37480      .   S
    Zr3    O93       3.48808      .   S
    N92    O94       2.27228      .   S
    Zr0    O94       3.44520      .   S
    N95    O96       2.37826  1_556   S
    Zr5    O96       3.49409      .   S
    N95    O97       2.27561      .   S
    Zr6    O97       3.45020      .   S
    N98    O99       2.27608      .   S
    Zr2    O99       3.45117      .   S
    N98    O100      2.37677  1_454   S
    Zr1    O100      3.49306      .   S
    N101   O102      0.29356      .   S
    Zr42   O102      0.88068      .   S
    N101   O103      0.59043      .   S
    Zr6    O103      1.77129      .   S
    N104   O105      2.37827  1_656   S
    Zr4    O105      3.49409      .   S
    N104   O106      2.27580      .   S
    Zr7    O106      3.45082      .   S
    N107   O108      0.29365      .   S
    Zr24   O108      0.88096      .   S
    N107   O109      0.58637      .   S
    Zr2    O109      1.75912      .   S
    N110   O111      2.27263      .   S
    Zr4    O111      3.44599      .   S
    N110   O112      2.37336  1_455   S
    Zr7    O112      3.48665      .   S
    N113   O114      0.29372      .   S
    Zr45   O114      0.88117      .   S
    N113   O115      0.60156      .   S
    Zr6    O115      1.80468      .   S
    N116   O117      0.29369      .   S
    Zr32   O117      0.88106      .   S
    N116   O118      0.58666      .   S
    Zr4    O118      1.75997      .   S
    N119   O120      0.58643      .   S
    Zr6    O120      1.75930      .   S
    N119   O121      0.29365      .   S
    Zr40   O121      0.88095      .   S
    N122   O123      0.59779      .   S
    Zr4    O123      1.79336  1_455   S
    N122   O124      0.29382      .   S
    Zr31   O124      0.88145      .   S
    N125   O126      0.58624      .   S
    Zr7    O126      1.75872      .   S
    N125   O127      0.29365      .   S
    Zr41   O127      0.88094      .   S
    N128   O129      0.60251      .   S
    Zr4    O129      1.80752  1_455   S
    N128   O130      0.29373      .   S
    Zr37   O130      0.88120  1_565   S
    N131   O132      0.29168      .   S
    Zr18   O132      0.87504  1_545   S
    N131   O133      0.59086      .   S
    Zr0    O133      1.77257      .   S
    N134   O135      0.60254      .   S
    Zr5    O135      1.80762      .   S
    N134   O136      0.29376      .   S
    Zr36   O136      0.88128  1_565   S
    N137   O138      0.29368      .   S
    Zr30   O138      0.88104      .   S
    N137   O139      0.59779      .   S
    Zr5    O139      1.79337      .   S
    N140   O141      0.29369      .   S
    Zr44   O141      0.88108      .   S
    N140   O142      0.60154      .   S
    Zr7    O142      1.80462  1_655   S
    N143   O144      0.29378      .   S
    Zr17   O144      0.88134      .   S
    N143   O145      0.58668      .   S
    Zr1    O145      1.76004      .   S
    N146   O147      0.29367      .   S
    Zr16   O147      0.88102      .   S
    N146   O148      0.58662      .   S
    Zr0    O148      1.75986      .   S
    N149   O150      0.58666      .   S
    Zr5    O150      1.75998      .   S
    N149   O151      0.29368      .   S
    Zr33   O151      0.88103      .   S
    N152   O153      0.29390      .   S
    Zr29   O153      0.88170      .   S
    N152   O154      0.60149      .   S
    Zr2    O154      1.80447  1_455   S
    N155   O156      0.58630      .   S
    Zr3    O156      1.75889      .   S
    N155   O157      0.29363      .   S
    Zr25   O157      0.88088      .   S
    N158   O159      0.28962      .   S
    Zr20   O159      0.86885  1_545   S
    N158   O160      0.60261      .   S
    Zr1    O160      1.80782  1_655   S
    N161   O162      0.29380      .   S
    Zr22   O162      0.88140      .   S
    N161   O163      0.59708      .   S
    Zr7    O163      1.79123  1_655   S
    N164   O165      0.29379      .   S
    Zr39   O165      0.88137      .   S
    N164   O166      0.59713      .   S
    Zr2    O166      1.79139  1_455   S
    N167   O168      0.29381      .   S
    Zr46   O168      0.88142      .   S
    N167   O169      0.59791      .   S
    Zr1    O169      1.79374  1_655   S
    N170   O171      0.29369      .   S
    Zr38   O171      0.88106      .   S
    N170   O172      0.59713      .   S
    Zr3    O172      1.79138      .   S
    N173   O174      0.29381      .   S
    Zr47   O174      0.88143      .   S
    N173   O175      0.59785      .   S
    Zr0    O175      1.79355      .   S
    N176   O177      0.59043      .   S
    Zr3    O177      1.77128      .   S
    N176   O178      0.29357      .   S
    Zr27   O178      0.88070      .   S
    N179   O180      0.59075      .   S
    Zr4    O180      1.77225      .   S
    N179   O181      0.29358      .   S
    Zr34   O181      0.88073  1_565   S
    N182   O183      0.28954      .   S
    Zr21   O183      0.86861  1_545   S
    N182   O184      0.60253      .   S
    Zr0    O184      1.80759      .   S
    N185   O186      0.59051      .   S
    Zr2    O186      1.77153      .   S
    N185   O187      0.29342      .   S
    Zr26   O187      0.88027      .   S
    N188   O189      0.29379      .   S
    Zr23   O189      0.88136      .   S
    N188   O190      0.59702      .   S
    Zr6    O190      1.79106      .   S
    N191   O192      0.29370      .   S
    Zr28   O192      0.88110      .   S
    N191   O193      0.60151      .   S
    Zr3    O193      1.80452      .   S
    N194   O195      0.29358      .   S
    Zr35   O195      0.88073  1_565   S
    N194   O196      0.59072      .   S
    Zr5    O196      1.77215      .   S
    N197   O198      0.29182      .   S
    Zr19   O198      0.87547  1_545   S
    N197   O199      0.59076      .   S
    Zr1    O199      1.77229      .   S
