# CIF file generated by openbabel 2.4.90, see http://openbabel.sf.net
data_I
_chemical_name_common ''
_cell_length_a 13.642
_cell_length_b 14.788
_cell_length_c 15.137
_cell_angle_alpha 90
_cell_angle_beta 90.001
_cell_angle_gamma 90
_space_group_name_H-M_alt 'P 1'
_space_group_name_Hall 'P 1'
loop_
    _symmetry_equiv_pos_as_xyz
    x,y,z
loop_
    _atom_site_label
    _atom_site_type_symbol
    _atom_site_fract_x
    _atom_site_fract_y
    _atom_site_fract_z
    _atom_site_occupancy
    Sr0     Sr   0.92060   0.30612   0.53958   1.000
    Sr1     Sr   0.32941   0.69384   0.03960   1.000
    Sr2     Sr   0.82940   0.69377   0.03951   1.000
    Sr3     Sr   0.07940   0.80612   0.96046   1.000
    Sr4     Sr   0.57940   0.80612   0.96042   1.000
    Sr5     Sr   0.17061   0.19379   0.46049   1.000
    Sr6     Sr   0.67060   0.19383   0.46041   1.000
    Sr7     Sr   0.42061   0.30616   0.53959   1.000
    C8      C    0.42214   0.14019   0.42254   1.000
    C9      C    0.92210   0.14014   0.42253   1.000
    C10     C    0.45111   0.86237   0.15148   1.000
    C11     C    0.95114   0.86242   0.15136   1.000
    C12     C    0.32786   0.85978   0.92255   1.000
    C13     C    0.82786   0.85978   0.92254   1.000
    C14     C    0.29890   0.13758   0.65140   1.000
    C15     C    0.79888   0.13757   0.65140   1.000
    C16     C    0.07791   0.64013   0.07748   1.000
    C17     C    0.57787   0.64017   0.07746   1.000
    C18     C    0.04886   0.36245   0.34867   1.000
    C19     C    0.54887   0.36240   0.34855   1.000
    C20     C    0.17213   0.35980   0.57749   1.000
    C21     C    0.67214   0.35979   0.57745   1.000
    C22     C    0.20113   0.63754   0.84861   1.000
    C23     C    0.70108   0.63760   0.84848   1.000
    O24     O    0.34920   0.19455   0.41876   1.000
    O25     O    0.84920   0.19453   0.41874   1.000
    O26     O    0.49203   0.15299   0.47775   1.000
    O27     O    0.99202   0.15294   0.47773   1.000
    O28     O    0.40327   0.78871   0.15703   1.000
    O29     O    0.90331   0.78874   0.15673   1.000
    O30     O    0.00452   0.88623   0.08655   1.000
    O31     O    0.50440   0.88609   0.08657   1.000
    O32     O    0.40079   0.80541   0.91876   1.000
    O33     O    0.90079   0.80542   0.91877   1.000
    O34     O    0.25797   0.84699   0.97776   1.000
    O35     O    0.75795   0.84698   0.97774   1.000
    O36     O    0.34674   0.21124   0.65690   1.000
    O37     O    0.84671   0.21123   0.65694   1.000
    O38     O    0.24558   0.11381   0.58660   1.000
    O39     O    0.74557   0.11382   0.58656   1.000
    O40     O    0.15081   0.69452   0.08126   1.000
    O41     O    0.65081   0.69452   0.08124   1.000
    O42     O    0.00799   0.65292   0.02228   1.000
    O43     O    0.50797   0.65298   0.02226   1.000
    O44     O    0.09669   0.28877   0.34330   1.000
    O45     O    0.59672   0.28874   0.34306   1.000
    O46     O    0.49558   0.38615   0.41344   1.000
    O47     O    0.99548   0.38626   0.41348   1.000
    O48     O    0.09921   0.30543   0.58127   1.000
    O49     O    0.59922   0.30541   0.58126   1.000
    O50     O    0.24204   0.34700   0.52200   1.000
    O51     O    0.74204   0.34698   0.52225   1.000
    O52     O    0.15329   0.71121   0.84316   1.000
    O53     O    0.65323   0.71125   0.84296   1.000
    O54     O    0.25446   0.61378   0.91348   1.000
    O55     O    0.75438   0.61386   0.91337   1.000
    Og56    Og   0.42378   0.11458   0.40137   1.000
    Og57    Og   0.92373   0.11453   0.40136   1.000
    Og58    Og   0.44826   0.88465   0.17646   1.000
    Og59    Og   0.94826   0.88468   0.17636   1.000
    Og60    Og   0.32624   0.88539   0.90139   1.000
    Og61    Og   0.82623   0.88539   0.90137   1.000
    Og62    Og   0.30176   0.11531   0.67641   1.000
    Og63    Og   0.80175   0.11529   0.67640   1.000
    Og64    Og   0.07629   0.61452   0.09865   1.000
    Og65    Og   0.57624   0.61456   0.09861   1.000
    Og66    Og   0.05175   0.38471   0.32367   1.000
    Og67    Og   0.55173   0.38468   0.32357   1.000
    Og68    Og   0.17375   0.38541   0.59866   1.000
    Og69    Og   0.67377   0.38540   0.59861   1.000
    Og70    Og   0.19826   0.61527   0.82362   1.000
    Og71    Og   0.69823   0.61531   0.82351   1.000
loop_
    _geom_bond_atom_site_label_1
    _geom_bond_atom_site_label_2
    _geom_bond_distance
    _geom_bond_site_symmetry_2
    _ccdc_geom_bond_type
    O43    C17       1.28193      .   S
    O42    C16       1.28201      .   S
    Sr2    O29       2.47742      .   S
    Sr2    O55       2.46763  1_554   S
    Sr1    O28       2.47851      .   S
    Sr1    O54       2.46815  1_554   S
    C17    O41       1.28038      .   S
    C16    O40       1.28041      .   S
    O30    C11       1.27149  1_455   S
    O30    Sr3       2.46772  1_554   S
    O31    C10       1.27153      .   S
    O31    Sr4       2.46817  1_554   S
    C11    O29       1.27257      .   S
    C10    O28       1.27261      .   S
    O45    C19       1.27261      .   S
    O45    Sr6       2.47815      .   S
    O44    C18       1.27259      .   S
    O44    Sr5       2.47720      .   S
    C19    O46       1.27151      .   S
    C18    O47       1.27150  1_455   S
    O46    Sr7       2.46819      .   S
    O47    Sr0       2.46809      .   S
    O25    C9        1.28040      .   S
    O24    C8        1.28039      .   S
    C9     O27       1.28200      .   S
    C8     O26       1.28191      .   S
    Sr6    O39       2.46819      .   S
    Sr5    O38       2.46751      .   S
    O50    C20       1.28488      .   S
    O51    C21       1.28194      .   S
    Sr0    O37       2.47806      .   S
    Sr7    O36       2.47761      .   S
    C21    O49       1.28040      .   S
    C20    O48       1.28041      .   S
    O39    C15       1.27102      .   S
    O38    C14       1.27070      .   S
    C14    O36       1.27262      .   S
    C15    O37       1.27264      .   S
    O53    C23       1.27260      .   S
    O53    Sr4       2.47864      .   S
    O52    C22       1.27260      .   S
    O52    Sr3       2.47766      .   S
    C23    O55       1.27152      .   S
    C22    O54       1.27159      .   S
    O32    C12       1.28039      .   S
    O33    C13       1.28041      .   S
    C13    O35       1.28201      .   S
    C12    O34       1.28197      .   S
    O24    Sr7       2.64917      .   S
    O24    Sr5       2.51693      .   S
    O25    Sr0       2.64906      .   S
    O25    Sr6       2.51683      .   S
    O26    Sr7       2.63742      .   S
    O26    Sr6       2.52345      .   S
    O27    Sr0       2.63766      .   S
    O27    Sr5       2.52372  1_655   S
    O32    Sr1       2.64882  1_556   S
    O32    Sr4       2.51688      .   S
    O33    Sr2       2.64861  1_556   S
    O33    Sr3       2.51690  1_655   S
    O34    Sr1       2.63730  1_556   S
    O34    Sr3       2.52355      .   S
    O35    Sr2       2.63774  1_556   S
    O35    Sr4       2.52339      .   S
    O40    Sr1       2.51678      .   S
    O40    Sr3       2.64886  1_554   S
    O41    Sr2       2.51691      .   S
    O41    Sr4       2.64903  1_554   S
    O42    Sr2       2.52362  1_455   S
    O42    Sr3       2.63770  1_554   S
    O43    Sr1       2.52344      .   S
    O43    Sr4       2.63709  1_554   S
    O48    Sr0       2.51694  1_455   S
    O48    Sr5       2.64898      .   S
    O49    Sr7       2.51698      .   S
    O49    Sr6       2.64907      .   S
    O50    Sr7       2.52395      .   S
    O50    Sr5       2.63627      .   S
    O51    Sr0       2.52343      .   S
    O51    Sr6       2.63733      .   S
    C8     Og56      0.49656      .   S
    C9     Og57      0.49657      .   S
    C10    Og58      0.50304      .   S
    C11    Og59      0.50305      .   S
    C12    Og60      0.49655      .   S
    C13    Og61      0.49655      .   S
    C14    Og62      0.50332      .   S
    C15    Og63      0.50318      .   S
    C16    Og64      0.49655      .   S
    C17    Og65      0.49634      .   S
    C18    Og66      0.50305      .   S
    C19    Og67      0.50307      .   S
    C20    Og68      0.49657      .   S
    C21    Og69      0.49653      .   S
    C22    Og70      0.50303      .   S
    C23    Og71      0.50301      .   S
