# CIF file generated by openbabel 2.4.90, see http://openbabel.sf.net
data_I
_chemical_name_common ''
_cell_length_a 13.642
_cell_length_b 14.788
_cell_length_c 15.137
_cell_angle_alpha 90
_cell_angle_beta 90.001
_cell_angle_gamma 90
_space_group_name_H-M_alt 'P 1'
_space_group_name_Hall 'P 1'
loop_
    _symmetry_equiv_pos_as_xyz
    x,y,z
loop_
    _atom_site_label
    _atom_site_type_symbol
    _atom_site_fract_x
    _atom_site_fract_y
    _atom_site_fract_z
    _atom_site_occupancy
    C0      C    0.42214   0.14019   0.42254   1.000
    C1      C    0.92210   0.14014   0.42253   1.000
    C2      C    0.45111   0.86237   0.15148   1.000
    C3      C    0.95114   0.86242   0.15136   1.000
    C4      C    0.32786   0.85978   0.92255   1.000
    C5      C    0.82786   0.85978   0.92254   1.000
    C6      C    0.29890   0.13758   0.65140   1.000
    C7      C    0.79888   0.13757   0.65140   1.000
    C8      C    0.07791   0.64013   0.07748   1.000
    C9      C    0.57787   0.64017   0.07746   1.000
    C10     C    0.04886   0.36245   0.34867   1.000
    C11     C    0.54887   0.36240   0.34855   1.000
    C12     C    0.17213   0.35980   0.57749   1.000
    C13     C    0.67214   0.35979   0.57745   1.000
    C14     C    0.20113   0.63754   0.84861   1.000
    C15     C    0.70108   0.63760   0.84848   1.000
