# CIF file generated by openbabel 2.4.90, see http://openbabel.sf.net
data_I
_chemical_name_common ''
_cell_length_a 14.712
_cell_length_b 18.13
_cell_length_c 25.12
_cell_angle_alpha 89.962
_cell_angle_beta 90.097
_cell_angle_gamma 90.047
_space_group_name_H-M_alt 'P 1'
_space_group_name_Hall 'P 1'
loop_
    _symmetry_equiv_pos_as_xyz
    x,y,z
loop_
    _atom_site_label
    _atom_site_type_symbol
    _atom_site_fract_x
    _atom_site_fract_y
    _atom_site_fract_z
    _atom_site_occupancy
    Zn0     Zn   0.50416   0.25605   0.85161   1.000
    Zn1     Zn   0.46837   0.44736   0.85178   1.000
    Zn2     Zn   0.03534   0.43465   0.35190   1.000
    Zn3     Zn   0.00411   0.24393   0.35161   1.000
    Zn4     Zn   0.96810   0.05266   0.35180   1.000
    Zn5     Zn   0.96466   0.56531   0.64811   1.000
    Zn6     Zn   0.99589   0.75603   0.64839   1.000
    Zn7     Zn   0.03190   0.94730   0.64820   1.000
    Zn8     Zn   0.46475   0.93462   0.14808   1.000
    Zn9     Zn   0.49583   0.74392   0.14840   1.000
    Zn10    Zn   0.53163   0.55261   0.14822   1.000
    H11     H    0.48486   0.94814   0.92896   1.000
    H12     H    0.46464   0.81134   0.93167   1.000
    H13     H    0.54965   0.80600   0.76689   1.000
    H14     H    0.56835   0.94258   0.77168   1.000
    H15     H    0.53244   0.56391   0.92555   1.000
    H16     H    0.55344   0.70086   0.92760   1.000
    H17     H    0.42870   0.70888   0.77163   1.000
    H18     H    0.41389   0.57193   0.77613   1.000
    H19     H    0.82472   0.09067   0.81279   1.000
    H20     H    0.98180   0.13859   0.80432   1.000
    H21     H    0.89969   0.33982   0.88233   1.000
    H22     H    0.74213   0.29188   0.88826   1.000
    H23     H    0.00932   0.38657   0.83594   1.000
    H24     H    0.16658   0.43347   0.83722   1.000
    H25     H    0.26886   0.21171   0.84126   1.000
    H26     H    0.11094   0.16357   0.84449   1.000
    H27     H    0.38227   0.01749   0.99103   1.000
    H28     H    0.29427   0.01710   0.07486   1.000
    H29     H    0.25806   0.25236   0.06166   1.000
    H30     H    0.34564   0.25143   0.97653   1.000
    H31     H    0.15685   0.02776   0.11046   1.000
    Zn32    Zn   0.53525   0.06535   0.85192   1.000
    H33     H    0.07570   0.02345   0.19695   1.000
    H34     H    0.18730   0.23371   0.23980   1.000
    H35     H    0.26988   0.23917   0.15335   1.000
    H36     H    0.33420   0.03748   0.73480   1.000
    H37     H    0.23637   0.03584   0.65467   1.000
    H38     H    0.34413   0.24819   0.60867   1.000
    H39     H    0.43779   0.25017   0.69111   1.000
    H40     H    0.22483   0.01921   0.57295   1.000
    H41     H    0.12622   0.01298   0.49360   1.000
    H42     H    0.11551   0.24913   0.48632   1.000
    H43     H    0.21366   0.25704   0.56718   1.000
    H44     H    0.98495   0.55164   0.42888   1.000
    H45     H    0.96459   0.68838   0.43163   1.000
    H46     H    0.04974   0.69427   0.26687   1.000
    H47     H    0.06858   0.55773   0.27163   1.000
    H48     H    0.03227   0.93600   0.42550   1.000
    H49     H    0.05336   0.79909   0.42760   1.000
    H50     H    0.92858   0.79115   0.27162   1.000
    H51     H    0.91366   0.92806   0.27613   1.000
    H52     H    0.32497   0.40937   0.31272   1.000
    H53     H    0.48192   0.36140   0.30429   1.000
    H54     H    0.39928   0.16015   0.38241   1.000
    H55     H    0.24187   0.20814   0.38830   1.000
    H56     H    0.50886   0.11337   0.33610   1.000
    H57     H    0.66600   0.06644   0.33738   1.000
    H58     H    0.76880   0.28818   0.34123   1.000
    H59     H    0.61101   0.33636   0.34444   1.000
    H60     H    0.88238   0.48244   0.49082   1.000
    H61     H    0.79439   0.48293   0.57465   1.000
    H62     H    0.75777   0.24765   0.56182   1.000
    H63     H    0.84534   0.24848   0.47667   1.000
    H64     H    0.65703   0.47231   0.61030   1.000
    H65     H    0.57599   0.47673   0.69681   1.000
    H66     H    0.68715   0.26650   0.73995   1.000
    H67     H    0.76963   0.26092   0.65347   1.000
    H68     H    0.83412   0.46243   0.23480   1.000
    H69     H    0.73622   0.46406   0.15473   1.000
    H70     H    0.84413   0.25201   0.10868   1.000
    H71     H    0.93781   0.25001   0.19111   1.000
    H72     H    0.72462   0.48082   0.07301   1.000
    H73     H    0.62604   0.48700   0.99366   1.000
    H74     H    0.61558   0.25084   0.98636   1.000
    H75     H    0.71371   0.24298   0.06722   1.000
    H76     H    0.01504   0.44832   0.57112   1.000
    H77     H    0.03540   0.31158   0.56830   1.000
    H78     H    0.95027   0.30570   0.73313   1.000
    H79     H    0.93143   0.44224   0.72837   1.000
    H80     H    0.96772   0.06397   0.57446   1.000
    H81     H    0.94663   0.20087   0.57241   1.000
    H82     H    0.07142   0.20881   0.72838   1.000
    H83     H    0.08634   0.07190   0.72387   1.000
    H84     H    0.67503   0.59059   0.68728   1.000
    H85     H    0.51808   0.63856   0.69571   1.000
    H86     H    0.60071   0.83982   0.61759   1.000
    H87     H    0.75813   0.79182   0.61169   1.000
    H88     H    0.49114   0.88659   0.66391   1.000
    H89     H    0.33400   0.93352   0.66263   1.000
    H90     H    0.23120   0.71179   0.65877   1.000
    H91     H    0.38899   0.66361   0.65556   1.000
    H92     H    0.11761   0.51753   0.50910   1.000
    H93     H    0.20561   0.51704   0.42535   1.000
    H94     H    0.24222   0.75232   0.43818   1.000
    H95     H    0.15465   0.75149   0.52333   1.000
    H96     H    0.34296   0.52765   0.38970   1.000
    H97     H    0.42400   0.52323   0.30319   1.000
    H98     H    0.31285   0.73346   0.26005   1.000
    H99     H    0.23037   0.73904   0.34653   1.000
    C100    C    0.99354   0.78369   0.34927   1.000
    C101    C    0.95393   0.82105   0.30622   1.000
    C102    C    0.94459   0.89720   0.30869   1.000
    C103    C    0.17954   0.34069   0.35809   1.000
    H104    H    0.16588   0.53753   0.76516   1.000
    H105    H    0.26378   0.53591   0.84527   1.000
    H106    H    0.15587   0.74796   0.89132   1.000
    H107    H    0.06219   0.74996   0.80889   1.000
    H108    H    0.27539   0.51915   0.92699   1.000
    H109    H    0.37396   0.51297   0.00634   1.000
    H110    H    0.38442   0.74913   0.01364   1.000
    H111    H    0.28630   0.75699   0.93278   1.000
    H112    H    0.51514   0.05183   0.07105   1.000
    H113    H    0.53536   0.18862   0.06833   1.000
    H114    H    0.45035   0.19397   0.23311   1.000
    H115    H    0.43166   0.05739   0.22833   1.000
    H116    H    0.46756   0.43605   0.07445   1.000
    H117    H    0.44656   0.29910   0.07239   1.000
    H118    H    0.57131   0.29108   0.22830   1.000
    H119    H    0.58612   0.42803   0.22380   1.000
    H120    H    0.17528   0.90930   0.18721   1.000
    H121    H    0.01820   0.86138   0.19568   1.000
    H122    H    0.10031   0.66014   0.11768   1.000
    H123    H    0.25787   0.70808   0.11175   1.000
    H124    H    0.99068   0.61339   0.16407   1.000
    H125    H    0.83342   0.56650   0.16279   1.000
    H126    H    0.73113   0.78826   0.15874   1.000
    H127    H    0.88905   0.83640   0.15551   1.000
    H128    H    0.61773   0.98248   0.00897   1.000
    H129    H    0.70573   0.98287   0.92514   1.000
    H130    H    0.74195   0.74761   0.93834   1.000
    H131    H    0.65436   0.74854   0.02347   1.000
    C132    C    0.65785   0.64521   0.67225   1.000
    C133    C    0.56981   0.67246   0.67660   1.000
    C134    C    0.54687   0.74302   0.65719   1.000
    C135    C    0.61653   0.78566   0.63401   1.000
    C136    C    0.70466   0.75880   0.62982   1.000
    H137    H    0.84315   0.97221   0.88954   1.000
    H138    H    0.92430   0.97651   0.80305   1.000
    H139    H    0.81270   0.76624   0.76020   1.000
    H140    H    0.73012   0.76079   0.84665   1.000
    H141    H    0.66580   0.96249   0.26520   1.000
    H142    H    0.76363   0.96413   0.34533   1.000
    H143    H    0.65586   0.75178   0.39134   1.000
    H144    H    0.56220   0.74980   0.30890   1.000
    H145    H    0.77516   0.98075   0.42700   1.000
    H146    H    0.87378   0.98699   0.50641   1.000
    H147    H    0.88449   0.75083   0.51360   1.000
    H148    H    0.78633   0.74293   0.43283   1.000
    C149    C    0.49881   0.91410   0.89428   1.000
    C150    C    0.48757   0.83818   0.89531   1.000
    C151    C    0.50483   0.79718   0.84914   1.000
    C152    C    0.53379   0.83525   0.80358   1.000
    C153    C    0.54493   0.91124   0.80606   1.000
    C154    C    0.51070   0.59859   0.89254   1.000
    C155    C    0.52192   0.67451   0.89328   1.000
    C156    C    0.49363   0.71630   0.84929   1.000
    C157    C    0.45405   0.67896   0.80623   1.000
    C158    C    0.44479   0.60279   0.80868   1.000
    C159    C    0.67952   0.15936   0.85810   1.000
    C160    C    0.77395   0.18801   0.85163   1.000
    C161    C    0.84205   0.14527   0.82778   1.000
    C162    C    0.93015   0.17250   0.82339   1.000
    C163    C    0.95326   0.24303   0.84279   1.000
    C164    C    0.88372   0.28569   0.86590   1.000
    C165    C    0.79552   0.25887   0.87015   1.000
    C166    C    0.04755   0.27124   0.84011   1.000
    C167    C    0.06555   0.34753   0.83780   1.000
    C168    C    0.15419   0.37430   0.83805   1.000
    C169    C    0.22799   0.32547   0.83887   1.000
    C170    C    0.21118   0.24928   0.83980   1.000
    C171    C    0.12244   0.22280   0.84102   1.000
    C172    C    0.32411   0.35233   0.83917   1.000
    C173    C    0.42387   0.13464   0.92821   1.000
    C174    C    0.36974   0.13465   0.97860   1.000
    C175    C    0.35395   0.06874   0.00632   1.000
    C176    C    0.30406   0.06865   0.05324   1.000
    C177    C    0.26990   0.13478   0.07460   1.000
    C178    C    0.28591   0.20075   0.04650   1.000
    C179    C    0.33424   0.20067   0.99887   1.000
    C180    C    0.21970   0.13373   0.12550   1.000
    C181    C    0.16461   0.07292   0.13872   1.000
    C182    C    0.11889   0.07023   0.18699   1.000
    C183    C    0.12714   0.12794   0.22383   1.000
    C184    C    0.18134   0.18907   0.21100   1.000
    C185    C    0.22663   0.19193   0.16240   1.000
    C186    C    0.07882   0.12390   0.27600   1.000
    C187    C    0.45168   0.14266   0.76608   1.000
    C188    C    0.39242   0.14364   0.71772   1.000
    C189    C    0.33528   0.08352   0.70693   1.000
    C190    C    0.28100   0.08281   0.66170   1.000
    C191    C    0.28295   0.14184   0.62520   1.000
    C192    C    0.33994   0.20229   0.63662   1.000
    C193    C    0.39348   0.20351   0.68240   1.000
    C194    C    0.22638   0.13879   0.57658   1.000
    C195    C    0.20100   0.07019   0.55471   1.000
    C196    C    0.14559   0.06631   0.50998   1.000
    C197    C    0.11330   0.13076   0.48560   1.000
    C198    C    0.13954   0.19942   0.50631   1.000
    C199    C    0.19530   0.20324   0.55102   1.000
    C200    C    0.05160   0.12704   0.43842   1.000
    C201    C    0.99892   0.58579   0.39422   1.000
    C202    C    0.98756   0.66167   0.39526   1.000
    C203    C    0.00485   0.70283   0.34911   1.000
    C204    C    0.03387   0.66491   0.30355   1.000
    C205    C    0.04510   0.58893   0.30602   1.000
    C206    C    0.01053   0.90135   0.39254   1.000
    C207    C    0.02183   0.82545   0.39326   1.000
    O208    O    0.58589   0.81266   0.10409   1.000
    O209    O    0.97453   0.93190   0.71770   1.000
    O210    O    0.90623   0.82703   0.68900   1.000
    O211    O    0.54670   0.91903   0.20841   1.000
    O212    O    0.50367   0.80034   0.22156   1.000
    O213    O    0.95728   0.93685   0.58355   1.000
    O214    O    0.98880   0.81510   0.57630   1.000
    C215    C    0.27393   0.31203   0.35162   1.000
    C216    C    0.34215   0.35475   0.32775   1.000
    C217    C    0.43018   0.32750   0.32338   1.000
    C218    C    0.45313   0.25694   0.34282   1.000
    C219    C    0.38347   0.21430   0.36600   1.000
    C220    C    0.29534   0.24116   0.37018   1.000
    C221    C    0.54734   0.22871   0.34015   1.000
    C222    C    0.56518   0.15241   0.33800   1.000
    C223    C    0.65376   0.12562   0.33817   1.000
    C224    C    0.72768   0.17442   0.33893   1.000
    C225    C    0.71103   0.25061   0.33980   1.000
    C226    C    0.62235   0.27712   0.34102   1.000
    C227    C    0.82378   0.14759   0.33922   1.000
    C228    C    0.92385   0.36527   0.42819   1.000
    C229    C    0.86966   0.36527   0.47856   1.000
    C230    C    0.85398   0.43121   0.50619   1.000
    C231    C    0.80409   0.43135   0.55311   1.000
    C232    C    0.76982   0.36524   0.57461   1.000
    C233    C    0.78571   0.29924   0.54650   1.000
    C234    C    0.83404   0.29926   0.49893   1.000
    C235    C    0.71965   0.36634   0.62549   1.000
    C236    C    0.66471   0.42718   0.63863   1.000
    C237    C    0.61906   0.42993   0.68690   1.000
    C238    C    0.62724   0.37227   0.72383   1.000
    C239    C    0.68127   0.31111   0.71100   1.000
    C240    C    0.72649   0.30818   0.66248   1.000
    C241    C    0.57905   0.37636   0.77610   1.000
    C242    C    0.95165   0.35739   0.26600   1.000
    C243    C    0.89239   0.35641   0.21774   1.000
    C244    C    0.83520   0.41645   0.20697   1.000
    C245    C    0.78091   0.41716   0.16174   1.000
    C246    C    0.78288   0.35821   0.12524   1.000
    C247    C    0.83992   0.29784   0.13664   1.000
    C248    C    0.89346   0.29661   0.18242   1.000
    C249    C    0.72630   0.36124   0.07662   1.000
    C250    C    0.70084   0.42983   0.05476   1.000
    C251    C    0.64547   0.43368   0.01003   1.000
    C252    C    0.61326   0.36921   0.98566   1.000
    C253    C    0.63955   0.30057   0.00634   1.000
    C254    C    0.69529   0.29678   0.05106   1.000
    C255    C    0.55163   0.37291   0.93845   1.000
    C256    C    0.00000   0.41418   0.60578   1.000
    C257    C    0.01243   0.33829   0.60474   1.000
    C258    C    0.99515   0.29713   0.65089   1.000
    C259    C    0.96614   0.33506   0.69645   1.000
    C260    C    0.95490   0.41103   0.69399   1.000
    C261    C    0.98946   0.09861   0.60747   1.000
    C262    C    0.97816   0.17451   0.60674   1.000
    C263    C    0.00645   0.21627   0.65073   1.000
    C264    C    0.04607   0.17891   0.69378   1.000
    C265    C    0.05540   0.10276   0.69132   1.000
    C266    C    0.82045   0.65928   0.64190   1.000
    C267    C    0.72606   0.68793   0.64838   1.000
    C268    C    0.45266   0.77125   0.65985   1.000
    C269    C    0.43482   0.84755   0.66201   1.000
    C270    C    0.34624   0.87435   0.66180   1.000
    C271    C    0.27232   0.82554   0.66107   1.000
    C272    C    0.28897   0.74935   0.66018   1.000
    C273    C    0.37764   0.72284   0.65898   1.000
    C274    C    0.17622   0.85237   0.66078   1.000
    C275    C    0.07615   0.63469   0.57181   1.000
    C276    C    0.13033   0.63470   0.52144   1.000
    C277    C    0.14601   0.56875   0.49381   1.000
    C278    C    0.19590   0.56861   0.44600   1.000
    C279    C    0.23018   0.63472   0.42500   1.000
    C280    C    0.21428   0.70072   0.45343   1.000
    C281    C    0.16595   0.70071   0.50100   1.000
    C282    C    0.28034   0.63363   0.37451   1.000
    C283    C    0.33528   0.57278   0.36137   1.000
    C284    C    0.38093   0.57003   0.31310   1.000
    C285    C    0.37275   0.62769   0.27617   1.000
    C286    C    0.31873   0.68886   0.28893   1.000
    C287    C    0.27350   0.69178   0.33753   1.000
    C288    C    0.42094   0.62360   0.22390   1.000
    C289    C    0.04835   0.64257   0.73391   1.000
    C290    C    0.10762   0.64356   0.78226   1.000
    C291    C    0.16481   0.58352   0.79303   1.000
    C292    C    0.21910   0.58281   0.83826   1.000
    C293    C    0.21713   0.64176   0.87476   1.000
    C294    C    0.16008   0.70213   0.86336   1.000
    C295    C    0.10654   0.70336   0.81758   1.000
    C296    C    0.27370   0.63873   0.92338   1.000
    C297    C    0.29916   0.57014   0.94524   1.000
    C298    C    0.35454   0.56629   0.98997   1.000
    C299    C    0.38674   0.63076   0.01430   1.000
    C300    C    0.36045   0.69940   0.99366   1.000
    C301    C    0.30471   0.70319   0.94894   1.000
    C302    C    0.44837   0.62706   0.06155   1.000
    C303    C    0.50119   0.08587   0.10572   1.000
    C304    C    0.51244   0.16178   0.10469   1.000
    C305    C    0.49517   0.20279   0.15086   1.000
    C306    C    0.46622   0.16472   0.19642   1.000
    C307    C    0.45508   0.08873   0.19395   1.000
    C308    C    0.48930   0.40137   0.10746   1.000
    C309    C    0.47808   0.32546   0.10672   1.000
    C310    C    0.50637   0.28367   0.15070   1.000
    C311    C    0.54596   0.32101   0.19377   1.000
    C312    C    0.55521   0.39718   0.19132   1.000
    C313    C    0.32048   0.84061   0.14190   1.000
    C314    C    0.22604   0.81196   0.14837   1.000
    C315    C    0.15795   0.85470   0.17222   1.000
    C316    C    0.06985   0.82747   0.17661   1.000
    C317    C    0.04674   0.75693   0.15722   1.000
    C318    C    0.11628   0.71428   0.13406   1.000
    C319    C    0.20447   0.74110   0.12986   1.000
    C320    C    0.95245   0.72873   0.15990   1.000
    C321    C    0.93445   0.65244   0.16212   1.000
    C322    C    0.84581   0.62567   0.16195   1.000
    C323    C    0.77201   0.67449   0.16114   1.000
    C324    C    0.78882   0.75068   0.16018   1.000
    C325    C    0.87755   0.77717   0.15898   1.000
    C326    C    0.67588   0.64764   0.16083   1.000
    C327    C    0.57613   0.86533   0.07180   1.000
    C328    C    0.63026   0.86532   0.02140   1.000
    C329    C    0.64605   0.93123   0.99360   1.000
    C330    C    0.69594   0.93132   0.94670   1.000
    C331    C    0.73010   0.86519   0.92537   1.000
    C332    C    0.71409   0.79922   0.95350   1.000
    C333    C    0.66576   0.79929   0.00114   1.000
    C334    C    0.78030   0.86623   0.87449   1.000
    C335    C    0.83539   0.92705   0.86128   1.000
    C336    C    0.88111   0.92973   0.81301   1.000
    C337    C    0.87286   0.87202   0.77617   1.000
    C338    C    0.81866   0.81089   0.78900   1.000
    C339    C    0.77337   0.80803   0.83759   1.000
    C340    C    0.92117   0.87605   0.72393   1.000
    C341    C    0.54832   0.85731   0.23392   1.000
    C342    C    0.60758   0.85632   0.28228   1.000
    C343    C    0.66472   0.91645   0.29300   1.000
    C344    C    0.71899   0.91715   0.33831   1.000
    C345    C    0.71705   0.85813   0.37481   1.000
    C346    C    0.66005   0.79768   0.36338   1.000
    C347    C    0.60651   0.79646   0.31760   1.000
    C348    C    0.77361   0.86118   0.42343   1.000
    C349    C    0.79900   0.92977   0.44500   1.000
    C350    C    0.85440   0.93365   0.49002   1.000
    C351    C    0.88670   0.86921   0.51440   1.000
    C352    C    0.86045   0.80054   0.49300   1.000
    C353    C    0.80469   0.79673   0.44899   1.000
    C354    C    0.94839   0.87292   0.56158   1.000
    N355    N    0.52766   0.95042   0.85053   1.000
    N356    N    0.47270   0.56281   0.85095   1.000
    N357    N    0.02785   0.54961   0.35048   1.000
    N358    N    0.97247   0.93715   0.35096   1.000
    N359    N    0.97215   0.45036   0.64952   1.000
    N360    N    0.02752   0.06281   0.64905   1.000
    N361    N    0.47234   0.04954   0.14947   1.000
    N362    N    0.52731   0.43715   0.14905   1.000
    O363    O    0.66380   0.09281   0.84215   1.000
    O364    O    0.62048   0.19994   0.87981   1.000
    O365    O    0.33822   0.41972   0.85425   1.000
    O366    O    0.38566   0.30890   0.82434   1.000
    O367    O    0.47658   0.07847   0.92164   1.000
    O368    O    0.41411   0.18731   0.89591   1.000
    O369    O    0.02548   0.06806   0.28227   1.000
    O370    O    0.09377   0.17292   0.31071   1.000
    O371    O    0.45330   0.08094   0.79159   1.000
    O372    O    0.49633   0.19962   0.77845   1.000
    O373    O    0.04272   0.06312   0.41645   1.000
    O374    O    0.01120   0.18487   0.42370   1.000
    O375    O    0.16388   0.40724   0.34211   1.000
    O376    O    0.12045   0.30006   0.37980   1.000
    O377    O    0.83782   0.08016   0.35426   1.000
    O378    O    0.88536   0.19111   0.32441   1.000
    O379    O    0.97664   0.42148   0.42161   1.000
    O380    O    0.91408   0.31261   0.39593   1.000
    O381    O    0.52602   0.43232   0.78230   1.000
    O382    O    0.59381   0.32729   0.81076   1.000
    O383    O    0.95330   0.41907   0.29159   1.000
    O384    O    0.99630   0.30045   0.27847   1.000
    O385    O    0.54277   0.43687   0.91648   1.000
    O386    O    0.51126   0.31505   0.92371   1.000
    O387    O    0.83612   0.59272   0.65790   1.000
    O388    O    0.87955   0.69990   0.62018   1.000
    O389    O    0.16218   0.91980   0.64574   1.000
    O390    O    0.11463   0.80885   0.67559   1.000
    O391    O    0.02336   0.57849   0.57839   1.000
    O392    O    0.08592   0.68735   0.60407   1.000
    O393    O    0.47397   0.56765   0.21770   1.000
    O394    O    0.40618   0.67267   0.18925   1.000
    O395    O    0.04669   0.58089   0.70841   1.000
    O396    O    0.00000   0.69951   0.72153   1.000
    O397    O    0.45723   0.56310   0.08352   1.000
    O398    O    0.48874   0.68491   0.07629   1.000
    O399    O    0.33620   0.90716   0.15785   1.000
    O400    O    0.37952   0.80003   0.12019   1.000
    O401    O    0.66178   0.58024   0.14576   1.000
    O402    O    0.61434   0.69106   0.17566   1.000
    O403    O    0.52342   0.92150   0.07836   1.000
loop_
    _geom_bond_atom_site_label_1
    _geom_bond_atom_site_label_2
    _geom_bond_distance
    _geom_bond_site_symmetry_2
    _ccdc_geom_bond_type
    C333   C328      1.40269      .   S
    C333   H131      1.09031      .   S
    C333   C332      1.39310  1_554   S
    C175   C176      1.38952      .   S
    C175   C174      1.40207  1_554   S
    C175   H27       1.08908  1_554   S
    C253   C254      1.39142      .   S
    C253   C252      1.40270  1_554   S
    C253   H74       1.09029  1_554   S
    H109   C298      1.08842  1_554   S
    H128   C329      1.08978  1_554   S
    C251   C250      1.38851      .   S
    C251   C252      1.40164  1_554   S
    C251   H73       1.08843  1_554   S
    H110   C300      1.09030  1_554   S
    C299   C302      1.49385      .   S
    C299   C298      1.40120  1_554   S
    C299   C300      1.40233  1_554   S
    C328   C327      1.49678      .   S
    C328   C329      1.40306  1_554   S
    C178   H29       1.09085      .   S
    C178   C177      1.40830      .   S
    C178   C179      1.39288  1_554   S
    C254   H75       1.09037      .   S
    C254   C249      1.40906      .   S
    C176   C177      1.40734      .   S
    C176   H28       1.09025      .   S
    C250   H72       1.08941      .   S
    C250   C249      1.40966      .   S
    C302   O398      1.26052      .   S
    C302   O397      1.29049      .   S
    H113   C304      1.08856      .   S
    H112   C303      1.08769      .   S
    C327   O403      1.29127      .   S
    C327   O208      1.26065      .   S
    H117   C309      1.08895      .   S
    H116   C308      1.08806      .   S
    C177   C180      1.47776      .   S
    O398   Zn9       2.10669      .   S
    C249   C246      1.47785      .   S
    O403   Zn8       1.96848      .   S
    O397   Zn10      1.96713      .   S
    O208   Zn9       2.13262      .   S
    C304   C303      1.38633      .   S
    C304   C305      1.40173      .   S
    C303   N361      1.34973      .   S
    C309   C308      1.38626      .   S
    C309   C310      1.40201      .   S
    C308   N362      1.35024      .   S
    H70    C247      1.09015      .   S
    H31    C181      1.08977      .   S
    H123   C319      1.08845      .   S
    H122   C318      1.08975      .   S
    O400   C313      1.26358      .   S
    O400   Zn9       2.11257      .   S
    C246   C247      1.40875      .   S
    C246   C245      1.40897      .   S
    C180   C181      1.40778      .   S
    C180   C185      1.40842      .   S
    C319   C318      1.38951      .   S
    C319   C314      1.40243      .   S
    C318   C317      1.40960      .   S
    C247   C248      1.39298      .   S
    C181   C182      1.38843      .   S
    C313   C314      1.49198      .   S
    C313   O399      1.29213      .   S
    O401   Zn10      1.97989      .   S
    O401   C326      1.29585      .   S
    Zn8    N361      2.08680  1_565   S
    Zn8    O399      1.97097      .   S
    Zn8    O211      1.95550      .   S
    Zn10   N362      2.09417      .   S
    Zn10   O393      1.96115      .   S
    C314   C315      1.40240      .   S
    Zn9    O402      2.10344      .   S
    Zn9    O394      2.11213      .   S
    Zn9    O212      2.10686      .   S
    N362   C312      1.34880      .   S
    N361   C307      1.34906      .   S
    C310   C305      1.47540      .   S
    C310   C311      1.40220      .   S
    C305   C306      1.40276      .   S
    H35    C185      1.09067      .   S
    H69    C245      1.08930      .   S
    H127   C325      1.09038      .   S
    C317   C320      1.47966  1_455   S
    C317   C316      1.40990      .   S
    H126   C324      1.08922      .   S
    C325   C320      1.40971      .   S
    C325   C324      1.39105      .   S
    C320   C321      1.40923      .   S
    C324   C323      1.40327      .   S
    C326   C323      1.49534      .   S
    C326   O402      1.25748      .   S
    C323   C322      1.40150      .   S
    C245   C244      1.38778      .   S
    C322   C321      1.39107      .   S
    C322   H125      1.08821      .   S
    C321   H124      1.09016      .   S
    C185   C184      1.39272      .   S
    C315   C316      1.39115      .   S
    C315   H120      1.08925      .   S
    C316   H121      1.08952      .   S
    C248   H71       1.08963      .   S
    C248   C243      1.40145      .   S
    C182   H33       1.08865      .   S
    C182   C183      1.40225      .   S
    O394   C288      1.26291      .   S
    C312   C311      1.38882      .   S
    C312   H119      1.08829      .   S
    C311   H118      1.08831      .   S
    C307   C306      1.38873      .   S
    C307   H115      1.08967      .   S
    C306   H114      1.08934      .   S
    C244   C243      1.40234      .   S
    C244   H68       1.08848      .   S
    O211   C341      1.28927      .   S
    C184   C183      1.40249      .   S
    C184   H34       1.08934      .   S
    O393   C288      1.28995      .   S
    C243   C242      1.49218      .   S
    O212   C341      1.26223      .   S
    C183   C186      1.49363      .   S
    C288   C285      1.49517      .   S
    C341   C342      1.49415      .   S
    H98    C286      1.08950      .   S
    H141   C343      1.08804      .   S
    C242   O384      1.26302      .   S
    C242   O383      1.29046      .   S
    H46    C204      1.08937      .   S
    H50    C101      1.08977      .   S
    H47    C205      1.08980      .   S
    C186   O369      1.29029      .   S
    C186   O370      1.26431      .   S
    H51    C102      1.08981      .   S
    C285   C286      1.40243      .   S
    C285   C284      1.40228      .   S
    O384   Zn3       2.10614  1_655   S
    O369   Zn4       1.96084  1_455   S
    C342   C343      1.40200      .   S
    C342   C347      1.40149      .   S
    C286   C287      1.39242      .   S
    O383   Zn2       1.95583  1_655   S
    C343   C344      1.38928      .   S
    H97    C284      1.08867      .   S
    C204   C205      1.38880      .   S
    C204   C203      1.40281      .   S
    H53    C217      1.08953      .   S
    C205   N357      1.34898      .   S
    C101   C102      1.38889      .   S
    C101   C100      1.40198      .   S
    C102   N358      1.34888      .   S
    H144   C347      1.08962      .   S
    O370   Zn3       2.11232      .   S
    H52    C216      1.08919      .   S
    C284   C283      1.38810      .   S
    C347   C346      1.39294      .   S
    C217   C216      1.39123      .   S
    C217   C218      1.40998      .   S
    O378   C227      1.25755      .   S
    O378   Zn3       2.10479  1_655   S
    C216   C215      1.40240      .   S
    H56    C222      1.09018      .   S
    H57    C223      1.08824      .   S
    C287   H99       1.09067      .   S
    C287   C282      1.40834      .   S
    C222   C223      1.39117      .   S
    C222   C221      1.40928      .   S
    C223   C224      1.40155      .   S
    C344   H142      1.08929      .   S
    C344   C345      1.40904      .   S
    C224   C227      1.49557      .   S
    C224   C225      1.40330      .   S
    C227   O377      1.29594      .   S
    C225   C226      1.39109      .   S
    C225   H58       1.08922      .   S
    C221   C226      1.40974      .   S
    C221   C218      1.47960      .   S
    C226   H59       1.09037      .   S
    O375   Zn2       1.97159      .   S
    O375   C103      1.29213      .   S
    C218   C219      1.40958      .   S
    C203   C100      1.47556  1_455   S
    C203   C202      1.40174  1_455   S
    C100   C207      1.40236  1_655   S
    N357   Zn2       2.08734      .   S
    N357   C201      1.34966  1_455   S
    N358   Zn4       2.09538  1_565   S
    N358   C206      1.35036  1_655   S
    Zn3    O376      2.11195      .   S
    Zn3    O380      2.13403  1_455   S
    Zn3    O374      2.10570      .   S
    C215   C103      1.49223      .   S
    C215   C220      1.40246      .   S
    Zn4    O377      1.98190      .   S
    Zn4    O373      1.96783  1_655   S
    Zn2    O379      1.96812  1_455   S
    C103   O376      1.26326      .   S
    C283   C282      1.40775      .   S
    C283   H96       1.08990      .   S
    C346   C345      1.40883      .   S
    C346   H143      1.09031      .   S
    C219   C220      1.38955      .   S
    C219   H54       1.08971      .   S
    C220   H55       1.08831      .   S
    C282   C279      1.46868      .   S
    C345   C348      1.47775      .   S
    C206   C207      1.38632      .   S
    C206   H48       1.08707      .   S
    C207   H49       1.08913      .   S
    C201   C202      1.38639      .   S
    C201   H44       1.08779      .   S
    C202   H45       1.08866      .   S
    O380   C228      1.26063      .   S
    O373   C200      1.29043      .   S
    O379   C228      1.29138      .   S
    C348   C349      1.40680      .   S
    C348   C353      1.40910      .   S
    O374   C200      1.26053      .   S
    C279   C278      1.40290      .   S
    C279   C280      1.41374      .   S
    H93    C278      1.07932      .   S
    H145   C349      1.08681      .   S
    C228   C229      1.49661      .   S
    H148   C353      1.09036      .   S
    H94    C280      1.09093      .   S
    C200   C197      1.49309      .   S
    C349   C350      1.39466      .   S
    C278   C277      1.40856      .   S
    C353   C352      1.37730      .   S
    C280   C281      1.39153      .   S
    H63    C234      1.09048      .   S
    C229   C234      1.40279      .   S
    C229   C230      1.40234      .   S
    C197   C198      1.40314      .   S
    C197   C196      1.40176      .   S
    H42    C198      1.09035      .   S
    C350   H146      1.08876      .   S
    C350   C351      1.40176      .   S
    H60    C230      1.08887      .   S
    C352   H147      1.09749      .   S
    C352   C351      1.40969      .   S
    H41    C196      1.08865      .   S
    C277   H92       1.08816      .   S
    C277   C276      1.40234      .   S
    C234   C233      1.39154      .   S
    C281   C276      1.40342      .   S
    C281   H95       1.09140      .   S
    C230   C231      1.38954      .   S
    C198   C199      1.39146      .   S
    C196   C195      1.38878      .   S
    C351   C354      1.49309      .   S
    C276   C275      1.49659      .   S
    C233   H62       1.09155      .   S
    C233   C232      1.40969      .   S
    C199   H43       1.09037      .   S
    C199   C194      1.40909      .   S
    C231   C232      1.40768      .   S
    C231   H61       1.09026      .   S
    C195   H40       1.08933      .   S
    C195   C194      1.40971      .   S
    C354   O214      1.26053      .   S
    C354   O213      1.29043      .   S
    H77    C257      1.09013      .   S
    H76    C256      1.09087      .   S
    C275   O391      1.29138      .   S
    C275   O392      1.26064      .   S
    H81    C262      1.08895      .   S
    H80    C261      1.08803      .   S
    C232   C235      1.47715      .   S
    O214   Zn6       2.10569      .   S
    C194   C191      1.47775      .   S
    O391   Zn5       1.96835  1_455   S
    O213   Zn7       1.96785  1_655   S
    O392   Zn6       2.13401  1_455   S
    C257   C256      1.38841      .   S
    C257   C258      1.40172  1_455   S
    C256   N359      1.34473  1_455   S
    C262   C261      1.38632      .   S
    C262   C263      1.40238  1_655   S
    C261   N360      1.35038  1_655   S
    H38    C192      1.09017      .   S
    H64    C236      1.08987      .   S
    H87    C136      1.08843      .   S
    H86    C135      1.08980      .   S
    O388   C266      1.26337      .   S
    O388   Zn6       2.11215      .   S
    C191   C192      1.40877      .   S
    C191   C190      1.40905      .   S
    C235   C236      1.40776      .   S
    C235   C240      1.40849      .   S
    C136   C135      1.38956      .   S
    C136   C267      1.40249      .   S
    C135   C134      1.40959      .   S
    C192   C193      1.39297      .   S
    C236   C237      1.38810      .   S
    C266   C267      1.49225      .   S
    C266   O387      1.29230      .   S
    O389   Zn7       1.98193      .   S
    O389   C274      1.29594      .   S
    Zn5    N359      2.08737      .   S
    Zn5    O387      1.97157      .   S
    Zn5    O395      1.95563  1_655   S
    Zn7    N360      2.09533  1_565   S
    Zn7    O209      1.96017  1_455   S
    C267   C132      1.40240      .   S
    Zn6    O390      2.10477  1_655   S
    Zn6    O210      2.10868      .   S
    Zn6    O396      2.10394  1_655   S
    N360   C265      1.34890      .   S
    N359   C260      1.34916      .   S
    C263   C258      1.47556  1_455   S
    C263   C264      1.40200      .   S
    C258   C259      1.40280      .   S
    H67    C240      1.09074      .   S
    H37    C190      1.08933      .   S
    H91    C273      1.09037      .   S
    C134   C268      1.47957      .   S
    C134   C133      1.40974      .   S
    H90    C272      1.08921      .   S
    C273   C268      1.40974      .   S
    C273   C272      1.39108      .   S
    C268   C269      1.40930      .   S
    C272   C271      1.40330      .   S
    C274   C271      1.49557      .   S
    C274   O390      1.25754      .   S
    C271   C270      1.40154      .   S
    C190   C189      1.38765      .   S
    C270   C269      1.39116      .   S
    C270   H89       1.08828      .   S
    C269   H88       1.09018      .   S
    C240   C239      1.39066      .   S
    C132   C133      1.39121      .   S
    C132   H84       1.08919      .   S
    C133   H85       1.08975      .   S
    C193   H39       1.08967      .   S
    C193   C188      1.40147      .   S
    C237   H65       1.08867      .   S
    C237   C238      1.40227      .   S
    O210   C340      1.26815      .   S
    C265   C264      1.38887      .   S
    C265   H83       1.08964      .   S
    C264   H82       1.08978      .   S
    C260   C259      1.38878      .   S
    C260   H79       1.08957      .   S
    C259   H78       1.08935      .   S
    C189   C188      1.40235      .   S
    C189   H36       1.08916      .   S
    O395   C289      1.28935      .   S
    C239   C238      1.40283      .   S
    C239   H66       1.09066      .   S
    O209   C340      1.29016      .   S
    C188   C187      1.49419      .   S
    O396   C289      1.29163      .   S
    C238   C241      1.49516      .   S
    C340   C337      1.49516      .   S
    C289   C290      1.49403      .   S
    H139   C338      1.08937      .   S
    H104   C291      1.08915      .   S
    C187   O372      1.26228      .   S
    C187   O371      1.28927      .   S
    H13    C152      1.08933      .   S
    H17    C157      1.08971      .   S
    H14    C153      1.08969      .   S
    C241   O381      1.28996      .   S
    C241   O382      1.26306      .   S
    H18    C158      1.08960      .   S
    C337   C338      1.40248      .   S
    C337   C336      1.40229      .   S
    O372   Zn0       2.10686      .   S
    C290   C291      1.40235      .   S
    C290   C295      1.40147      .   S
    O381   Zn1       1.96113      .   S
    C338   C339      1.39250      .   S
    O371   Zn32      1.95550      .   S
    C291   C292      1.38778      .   S
    H138   C336      1.08866      .   S
    C152   C153      1.38873      .   S
    C152   C151      1.40278      .   S
    H20    C162      1.08953      .   S
    C153   N355      1.34887      .   S
    C157   C158      1.38881      .   S
    C157   C156      1.40201      .   S
    C158   N356      1.34881      .   S
    H107   C295      1.08965      .   S
    O382   Zn0       2.11212      .   S
    H19    C161      1.08922      .   S
    C336   C335      1.38843      .   S
    C295   C294      1.39297      .   S
    C162   C161      1.39115      .   S
    C162   C163      1.40995      .   S
    O366   C172      1.25750      .   S
    O366   Zn0       2.10352      .   S
    C161   C160      1.40246      .   S
    H23    C167      1.09007      .   S
    H24    C168      1.08822      .   S
    C339   H140      1.09070      .   S
    C339   C334      1.40846      .   S
    C167   C168      1.39106      .   S
    C167   C166      1.40934      .   S
    C168   C169      1.40152      .   S
    C292   H105      1.08930      .   S
    C292   C293      1.40897      .   S
    C169   C172      1.49532      .   S
    C169   C170      1.40327      .   S
    C172   O365      1.29591      .   S
    C170   C171      1.39107      .   S
    C170   H25       1.08923      .   S
    C166   C171      1.40971      .   S
    C166   C163      1.47964  1_455   S
    C171   H26       1.09038      .   S
    O363   Zn32      1.97099      .   S
    O363   C159      1.29215      .   S
    C163   C164      1.40908      .   S
    C151   C156      1.47540      .   S
    C151   C150      1.40173      .   S
    C156   C155      1.40220      .   S
    N355   Zn32      2.08678  1_565   S
    N355   C149      1.34974      .   S
    N356   Zn1       2.09415      .   S
    N356   C154      1.35023      .   S
    Zn0    O364      2.11250      .   S
    Zn0    O368      2.13246      .   S
    Zn0    O386      2.10649      .   S
    C160   C159      1.49196      .   S
    C160   C165      1.40243      .   S
    Zn1    O365      1.97989      .   S
    Zn1    O385      1.96713      .   S
    Zn32   O367      1.96848      .   S
    C159   O364      1.26355      .   S
    C335   C334      1.40770      .   S
    C335   H137      1.08981      .   S
    C294   C293      1.40875      .   S
    C294   H106      1.09016      .   S
    C164   C165      1.38961      .   S
    C164   H21       1.09018      .   S
    C165   H22       1.08845      .   S
    C334   C331      1.47731      .   S
    C293   C296      1.47785      .   S
    C154   C155      1.38628      .   S
    C154   H15       1.08806      .   S
    C155   H16       1.08875      .   S
    C149   C150      1.38632      .   S
    C149   H11       1.08789      .   S
    C150   H12       1.08857      .   S
    O368   C173      1.26081      .   S
    O385   C255      1.29048      .   S
    O367   C173      1.29131      .   S
    C296   C297      1.40965      .   S
    C296   C301      1.40906      .   S
    O386   C255      1.26049      .   S
    H129   C330      1.08950      .   S
    C331   C330      1.40707      .   S
    C331   C332      1.40864      .   S
    H108   C297      1.08941      .   S
    C173   C174      1.49656      .   S
    H111   C301      1.09037      .   S
    H130   C332      1.09086      .   S
    C255   C252      1.49308      .   S
    C297   C298      1.38849      .   S
    C330   C329      1.38910      .   S
    C301   C300      1.39139      .   S
    H30    C179      1.09047      .   S
    C174   C179      1.40276      .   S
