# CIF file generated by openbabel 2.4.90, see http://openbabel.sf.net
data_I
_chemical_name_common ''
_cell_length_a 14.712
_cell_length_b 18.13
_cell_length_c 25.12
_cell_angle_alpha 89.962
_cell_angle_beta 90.097
_cell_angle_gamma 90.047
_space_group_name_H-M_alt 'P 1'
_space_group_name_Hall 'P 1'
loop_
    _symmetry_equiv_pos_as_xyz
    x,y,z
loop_
    _atom_site_label
    _atom_site_type_symbol
    _atom_site_fract_x
    _atom_site_fract_y
    _atom_site_fract_z
    _atom_site_occupancy
    C0      C    0.17954   0.34069   0.35809   1.000
    C1      C    0.67952   0.15936   0.85810   1.000
    C2      C    0.32411   0.35233   0.83917   1.000
    C3      C    0.42387   0.13464   0.92821   1.000
    C4      C    0.07882   0.12390   0.27600   1.000
    C5      C    0.45168   0.14266   0.76608   1.000
    C6      C    0.05160   0.12704   0.43842   1.000
    C7      C    0.82378   0.14759   0.33922   1.000
    C8      C    0.92385   0.36527   0.42819   1.000
    C9      C    0.57905   0.37636   0.77610   1.000
    C10     C    0.95165   0.35739   0.26600   1.000
    C11     C    0.55163   0.37291   0.93845   1.000
    C12     C    0.82045   0.65928   0.64190   1.000
    C13     C    0.17622   0.85237   0.66078   1.000
    C14     C    0.07615   0.63469   0.57181   1.000
    C15     C    0.42094   0.62360   0.22390   1.000
    C16     C    0.04835   0.64257   0.73391   1.000
    C17     C    0.44837   0.62706   0.06155   1.000
    C18     C    0.32048   0.84061   0.14190   1.000
    C19     C    0.67588   0.64764   0.16083   1.000
    C20     C    0.57613   0.86533   0.07180   1.000
    C21     C    0.92117   0.87605   0.72393   1.000
    C22     C    0.54832   0.85731   0.23392   1.000
    C23     C    0.94839   0.87292   0.56158   1.000
