# CIF file generated by openbabel 2.4.90, see http://openbabel.sf.net
data_I
_chemical_name_common ''
_cell_length_a 20.818
_cell_length_b 14.184
_cell_length_c 14.212
_cell_angle_alpha 105.285
_cell_angle_beta 97.023
_cell_angle_gamma 95.798
_space_group_name_H-M_alt 'P 1'
_space_group_name_Hall 'P 1'
loop_
    _symmetry_equiv_pos_as_xyz
    x,y,z
loop_
    _atom_site_label
    _atom_site_type_symbol
    _atom_site_fract_x
    _atom_site_fract_y
    _atom_site_fract_z
    _atom_site_occupancy
    N0      N    0.50000   0.00001   0.49998   1.000
    N1      N    0.87314   0.30766   0.22905   1.000
    N2      N    0.37314   0.30766   0.22908   1.000
    N3      N    0.00000   0.00001   0.49998   1.000
    N4      N    0.12352   0.22873   0.30817   1.000
    N5      N    0.62352   0.22874   0.30817   1.000
    N6      N    0.25000   0.50000   0.99998   1.000
    N7      N    0.75000   0.50001   0.99998   1.000
    N8      N    0.62686   0.69234   0.77029   1.000
    N9      N    0.12685   0.69234   0.77029   1.000
    N10     N    0.37649   0.77090   0.69179   1.000
    N11     N    0.87649   0.77090   0.69178   1.000
    Zr12    Zr   0.87476   0.27981   0.72137   1.000
    O13     O    0.99753   0.35250   0.80900   1.000
    O14     O    0.75206   0.19217   0.64796   1.000
    Zr15    Zr   0.37476   0.27981   0.72137   1.000
    O16     O    0.49753   0.35250   0.80900   1.000
    O17     O    0.25206   0.19217   0.64796   1.000
    Zr18    Zr   0.62524   0.72021   0.27857   1.000
    O19     O    0.74795   0.80785   0.35199   1.000
    O20     O    0.50247   0.64752   0.19095   1.000
    Zr21    Zr   0.12524   0.72021   0.27859   1.000
    O22     O    0.24795   0.80785   0.35200   1.000
    O23     O    0.00247   0.64752   0.19096   1.000
    O24     O    0.87778   0.13522   0.71241   1.000
    O25     O    0.87144   0.41939   0.71411   1.000
    O26     O    0.62222   0.86470   0.28753   1.000
    O27     O    0.62856   0.58053   0.28584   1.000
    O28     O    0.62810   0.71166   0.13421   1.000
    O29     O    0.62215   0.71359   0.41839   1.000
    O30     O    0.87191   0.28836   0.86559   1.000
    O31     O    0.87786   0.28643   0.58141   1.000
    O32     O    0.37191   0.28836   0.86559   1.000
    O33     O    0.37786   0.28643   0.58142   1.000
    O34     O    0.37778   0.13522   0.71241   1.000
    O35     O    0.37144   0.41939   0.71410   1.000
    O36     O    0.12809   0.71165   0.13422   1.000
    O37     O    0.12214   0.71358   0.41839   1.000
    O38     O    0.12222   0.86470   0.28755   1.000
    O39     O    0.12856   0.58053   0.28585   1.000
loop_
    _geom_bond_atom_site_label_1
    _geom_bond_atom_site_label_2
    _geom_bond_distance
    _geom_bond_site_symmetry_2
    _ccdc_geom_bond_type
    Zr12   O13       2.67554      .   S
    N6     O13       5.53751  1_455   S
    Zr12   O14       2.67994      .   S
    N0     O14       5.54759      .   S
    Zr15   O16       2.67556      .   S
    N7     O16       5.53756      .   S
    Zr15   O17       2.67993      .   S
    N3     O17       5.54757      .   S
    Zr18   O19       2.67993      .   S
    N3     O19       5.54756  1_445   S
    Zr18   O20       2.67555      .   S
    N6     O20       5.53756  1_556   S
    Zr21   O22       2.67994      .   S
    N0     O22       5.54758  1_545   S
    Zr21   O23       2.67555      .   S
    N7     O23       5.53754  1_656   S
    N11    O24       5.09527  1_565   S
    Zr12   O24       2.02887      .   S
    N11    O25       5.07007      .   S
    Zr12   O25       2.01718      .   S
    Zr18   O26       2.02751      .   S
    N5     O26       5.09118  1_545   S
    Zr18   O27       2.01855      .   S
    N5     O27       5.07414      .   S
    Zr18   O28       2.03169      .   S
    N8     O28       5.10342  1_556   S
    Zr18   O29       2.02227      .   S
    N8     O29       5.07873      .   S
    Zr12   O30       2.02954      .   S
    N1     O30       5.09690  1_554   S
    Zr12   O31       2.02441      .   S
    N1     O31       5.08524      .   S
    Zr15   O32       2.02970      .   S
    N2     O32       5.09734  1_554   S
    Zr15   O33       2.02425      .   S
    N2     O33       5.08479      .   S
    Zr15   O34       2.02888      .   S
    N10    O34       5.09528  1_565   S
    Zr15   O35       2.01717      .   S
    N10    O35       5.07004      .   S
    Zr21   O36       2.03178      .   S
    N9     O36       5.10357  1_556   S
    Zr21   O37       2.02219      .   S
    N9     O37       5.07857      .   S
    Zr21   O38       2.02753      .   S
    N4     O38       5.09121  1_545   S
    Zr21   O39       2.01852      .   S
    N4     O39       5.07410      .   S
