# CIF file generated by openbabel 2.4.90, see http://openbabel.sf.net
data_I
_chemical_name_common ''
_cell_length_a 10.85
_cell_length_b 14.447
_cell_length_c 15.857
_cell_angle_alpha 90
_cell_angle_beta 89.976
_cell_angle_gamma 90.003
_space_group_name_H-M_alt 'P 1'
_space_group_name_Hall 'P 1'
loop_
    _symmetry_equiv_pos_as_xyz
    x,y,z
loop_
    _atom_site_label
    _atom_site_type_symbol
    _atom_site_fract_x
    _atom_site_fract_y
    _atom_site_fract_z
    _atom_site_occupancy
    H0      H    0.63407   0.74999   0.50210   1.000
    H1      H    0.13410   0.74999   0.50210   1.000
    H2      H    0.59756   0.74999   0.61206   1.000
    H3      H    0.09756   0.74999   0.61206   1.000
    H4      H    0.63413   0.74998   0.99811   1.000
    H5      H    0.13409   0.74999   0.99813   1.000
    H6      H    0.59750   0.74998   0.88819   1.000
    H7      H    0.09747   0.74999   0.88821   1.000
    H8      H    0.87136   0.25001   0.00000   1.000
    H9      H    0.37130   0.25001   0.00000   1.000
    H10     H    0.90680   0.24993   0.11246   1.000
    H11     H    0.40713   0.24999   0.11231   1.000
    H12     H    0.87075   0.24998   0.49811   1.000
    H13     H    0.37078   0.25000   0.49817   1.000
    H14     H    0.90788   0.25002   0.38823   1.000
    H15     H    0.40785   0.25002   0.38829   1.000
    C16     C    0.67346   0.75000   0.56593   1.000
    C17     C    0.17347   0.75000   0.56594   1.000
    C18     C    0.67345   0.74998   0.93424   1.000
    C19     C    0.17342   0.75000   0.93426   1.000
    C20     C    0.83134   0.24999   0.06604   1.000
    C21     C    0.33151   0.25000   0.06601   1.000
    C22     C    0.83174   0.25000   0.43417   1.000
    C23     C    0.33174   0.25001   0.43424   1.000
    O24     O    0.83400   0.65532   0.66613   1.000
    O25     O    0.33402   0.65534   0.66615   1.000
    O26     O    0.67074   0.56232   0.59617   1.000
    O27     O    0.17074   0.56233   0.59618   1.000
    O28     O    0.84429   0.62931   0.50591   1.000
    O29     O    0.34432   0.62931   0.50594   1.000
    O30     O    0.83403   0.84468   0.83394   1.000
    O31     O    0.33394   0.84472   0.83395   1.000
    O32     O    0.67059   0.93758   0.90381   1.000
    O33     O    0.17055   0.93761   0.90387   1.000
    O34     O    0.84415   0.87080   0.99414   1.000
    O35     O    0.34416   0.87081   0.99414   1.000
    O36     O    0.67012   0.34472   0.16573   1.000
    O37     O    0.17050   0.34469   0.16591   1.000
    O38     O    0.83404   0.43762   0.09618   1.000
    O39     O    0.33417   0.43764   0.09618   1.000
    O40     O    0.66106   0.37069   0.00541   1.000
    O41     O    0.16099   0.37069   0.00563   1.000
    O42     O    0.67165   0.15529   0.33358   1.000
    O43     O    0.17152   0.15529   0.33376   1.000
    O44     O    0.83465   0.06234   0.40381   1.000
    O45     O    0.33462   0.06235   0.40384   1.000
    O46     O    0.66072   0.12923   0.49375   1.000
    O47     O    0.16081   0.12923   0.49393   1.000
    O48     O    0.67155   0.34465   0.33366   1.000
    O49     O    0.17149   0.34469   0.33377   1.000
    O50     O    0.83460   0.43766   0.40382   1.000
    O51     O    0.33460   0.43766   0.40385   1.000
    O52     O    0.66076   0.37075   0.49383   1.000
    O53     O    0.16081   0.37076   0.49394   1.000
    O54     O    0.66956   0.15528   0.16543   1.000
    O55     O    0.17044   0.15530   0.16587   1.000
    O56     O    0.83388   0.06240   0.09619   1.000
    O57     O    0.33414   0.06237   0.09618   1.000
    O58     O    0.66126   0.12931   0.00508   1.000
    O59     O    0.16101   0.12931   0.00559   1.000
    O60     O    0.83403   0.65531   0.83394   1.000
    O61     O    0.33398   0.65531   0.83396   1.000
    O62     O    0.67063   0.56238   0.90383   1.000
    O63     O    0.17061   0.56237   0.90387   1.000
    O64     O    0.84419   0.62922   0.99414   1.000
    O65     O    0.34417   0.62923   0.99416   1.000
    O66     O    0.83400   0.84469   0.66612   1.000
    O67     O    0.33403   0.84468   0.66613   1.000
    O68     O    0.67074   0.93768   0.59616   1.000
    O69     O    0.17075   0.93767   0.59618   1.000
    O70     O    0.84429   0.87069   0.50590   1.000
    O71     O    0.34430   0.87069   0.50592   1.000
loop_
    _geom_bond_atom_site_label_1
    _geom_bond_atom_site_label_2
    _geom_bond_distance
    _geom_bond_site_symmetry_2
    _ccdc_geom_bond_type
    H8     C20       1.13342      .   S
    H9     C21       1.13202      .   S
    C21    H11       1.10126      .   S
    C20    H10       1.10129      .   S
    H14    C22       1.10120      .   S
    H15    C23       1.10120      .   S
    C22    H12       1.09881      .   S
    C23    H13       1.09881      .   S
    H1     C17       1.09882      .   S
    H0     C16       1.09882      .   S
    C16    H2        1.10124      .   S
    C17    H3        1.10123      .   S
    H6     C18       1.10126      .   S
    H7     C19       1.10125      .   S
    C18    H4        1.09879      .   S
    C19    H5        1.09878      .   S
