# CIF file generated by openbabel 2.4.90, see http://openbabel.sf.net
data_I
_chemical_name_common ''
_cell_length_a 10.85
_cell_length_b 14.447
_cell_length_c 15.857
_cell_angle_alpha 90
_cell_angle_beta 89.976
_cell_angle_gamma 90.003
_space_group_name_H-M_alt 'P 1'
_space_group_name_Hall 'P 1'
loop_
    _symmetry_equiv_pos_as_xyz
    x,y,z
loop_
    _atom_site_label
    _atom_site_type_symbol
    _atom_site_fract_x
    _atom_site_fract_y
    _atom_site_fract_z
    _atom_site_occupancy
    P0      P    0.76065   0.64479   0.58348   1.000
    P1      P    0.26067   0.64479   0.58351   1.000
    P2      P    0.76059   0.85521   0.91659   1.000
    P3      P    0.26055   0.85523   0.91662   1.000
    P4      P    0.74407   0.35522   0.08328   1.000
    P5      P    0.24423   0.35521   0.08338   1.000
    P6      P    0.74469   0.14478   0.41637   1.000
    P7      P    0.24467   0.14478   0.41649   1.000
    P8      P    0.74465   0.35520   0.41641   1.000
    P9      P    0.24466   0.35522   0.41650   1.000
    P10     P    0.74392   0.14478   0.08315   1.000
    P11     P    0.24420   0.14479   0.08335   1.000
    P12     P    0.76061   0.64478   0.91659   1.000
    P13     P    0.26058   0.64478   0.91662   1.000
    P14     P    0.76065   0.85522   0.58348   1.000
    P15     P    0.26067   0.85521   0.58349   1.000
