# CIF file generated by openbabel 2.4.90, see http://openbabel.sf.net
data_I
_chemical_name_common ''
_cell_length_a 10.85
_cell_length_b 14.447
_cell_length_c 15.857
_cell_angle_alpha 90
_cell_angle_beta 89.976
_cell_angle_gamma 90.003
_space_group_name_H-M_alt 'P 1'
_space_group_name_Hall 'P 1'
loop_
    _symmetry_equiv_pos_as_xyz
    x,y,z
loop_
    _atom_site_label
    _atom_site_type_symbol
    _atom_site_fract_x
    _atom_site_fract_y
    _atom_site_fract_z
    _atom_site_occupancy
    K0      K    0.00000   0.48765   0.75001   1.000
    K1      K    0.33233   0.00000   0.74997   1.000
    K2      K    0.00000   0.00000   0.75001   1.000
    K3      K    0.17255   0.51232   0.24992   1.000
    K4      K    0.67252   0.51231   0.24988   1.000
    K5      K    0.17254   0.98767   0.24990   1.000
    K6      K    0.67249   0.98770   0.24980   1.000
    V7      V    0.06714   0.46798   0.54718   1.000
    V8      V    0.56717   0.46796   0.54715   1.000
    V9      V    0.06698   0.03205   0.95276   1.000
    V10     V    0.56700   0.03201   0.95259   1.000
    V11     V    0.43792   0.53197   0.04723   1.000
    V12     V    0.00000   0.53195   0.04725   1.000
    V13     V    0.43807   0.96792   0.45279   1.000
    V14     V    0.00000   0.96792   0.45279   1.000
    V15     V    0.43807   0.53209   0.45280   1.000
    V16     V    0.00000   0.53208   0.45279   1.000
    V17     V    0.43792   0.96807   0.04721   1.000
    V18     V    0.00000   0.96810   0.04726   1.000
    V19     V    0.06702   0.46795   0.95276   1.000
    V20     V    0.56702   0.46797   0.95268   1.000
    V21     V    0.06715   0.03201   0.54718   1.000
    V22     V    0.56718   0.03203   0.54713   1.000
    V23     V    0.88402   0.75001   0.75004   1.000
    V24     V    0.38400   0.75002   0.75010   1.000
    V25     V    0.62094   0.24998   0.24998   1.000
    V26     V    0.12106   0.24999   0.25010   1.000
    P27     P    0.76065   0.64479   0.58348   1.000
    P28     P    0.26067   0.64479   0.58351   1.000
    P29     P    0.76059   0.85521   0.91659   1.000
    P30     P    0.26055   0.85523   0.91662   1.000
    P31     P    0.74407   0.35522   0.08328   1.000
    K32     K    0.33239   0.48766   0.74999   1.000
    P33     P    0.24423   0.35521   0.08338   1.000
    P34     P    0.74469   0.14478   0.41637   1.000
    P35     P    0.24467   0.14478   0.41649   1.000
    P36     P    0.74465   0.35520   0.41641   1.000
    P37     P    0.24466   0.35522   0.41650   1.000
    P38     P    0.74392   0.14478   0.08315   1.000
    P39     P    0.24420   0.14479   0.08335   1.000
    P40     P    0.76061   0.64478   0.91659   1.000
    P41     P    0.26058   0.64478   0.91662   1.000
    P42     P    0.76065   0.85522   0.58348   1.000
    P43     P    0.26067   0.85521   0.58349   1.000
    H44     H    0.63407   0.74999   0.50210   1.000
    H45     H    0.13410   0.74999   0.50210   1.000
    H46     H    0.59756   0.74999   0.61206   1.000
    H47     H    0.09756   0.74999   0.61206   1.000
    H48     H    0.63413   0.74998   0.99811   1.000
    H49     H    0.13409   0.74999   0.99813   1.000
    H50     H    0.59750   0.74998   0.88819   1.000
    H51     H    0.09747   0.74999   0.88821   1.000
    H52     H    0.87136   0.25001   0.00000   1.000
    H53     H    0.37130   0.25001   0.00000   1.000
    H54     H    0.90680   0.24993   0.11246   1.000
    H55     H    0.40713   0.24999   0.11231   1.000
    H56     H    0.87075   0.24998   0.49811   1.000
    H57     H    0.37078   0.25000   0.49817   1.000
    H58     H    0.90788   0.25002   0.38823   1.000
    H59     H    0.40785   0.25002   0.38829   1.000
    C60     C    0.67346   0.75000   0.56593   1.000
    C61     C    0.17347   0.75000   0.56594   1.000
    C62     C    0.67345   0.74998   0.93424   1.000
    C63     C    0.17342   0.75000   0.93426   1.000
    C64     C    0.83134   0.24999   0.06604   1.000
    C65     C    0.33151   0.25000   0.06601   1.000
    C66     C    0.83174   0.25000   0.43417   1.000
    C67     C    0.33174   0.25001   0.43424   1.000
    O68     O    0.83400   0.65532   0.66613   1.000
    O69     O    0.33402   0.65534   0.66615   1.000
    O70     O    0.67074   0.56232   0.59617   1.000
    O71     O    0.17074   0.56233   0.59618   1.000
    O72     O    0.84429   0.62931   0.50591   1.000
    O73     O    0.34432   0.62931   0.50594   1.000
    O74     O    0.94823   0.43768   0.60375   1.000
    O75     O    0.44826   0.43768   0.60374   1.000
    O76     O    0.83403   0.84468   0.83394   1.000
    O77     O    0.33394   0.84472   0.83395   1.000
    O78     O    0.67059   0.93758   0.90381   1.000
    O79     O    0.17055   0.93761   0.90387   1.000
    O80     O    0.84415   0.87080   0.99414   1.000
    O81     O    0.34416   0.87081   0.99414   1.000
    O82     O    0.94814   0.06235   0.89620   1.000
    O83     O    0.44804   0.06231   0.89615   1.000
    O84     O    0.67012   0.34472   0.16573   1.000
    O85     O    0.17050   0.34469   0.16591   1.000
    O86     O    0.83404   0.43762   0.09618   1.000
    O87     O    0.33417   0.43764   0.09618   1.000
    O88     O    0.66106   0.37069   0.00541   1.000
    O89     O    0.16099   0.37069   0.00563   1.000
    O90     O    0.55684   0.56227   0.10374   1.000
    O91     O    0.05680   0.56224   0.10375   1.000
    O92     O    0.67165   0.15529   0.33358   1.000
    O93     O    0.17152   0.15529   0.33376   1.000
    O94     O    0.83465   0.06234   0.40381   1.000
    O95     O    0.33462   0.06235   0.40384   1.000
    O96     O    0.66072   0.12923   0.49375   1.000
    O97     O    0.16081   0.12923   0.49393   1.000
    O98     O    0.55701   0.93765   0.39623   1.000
    O99     O    0.05703   0.93763   0.39624   1.000
    O100    O    0.67155   0.34465   0.33366   1.000
    O101    O    0.17149   0.34469   0.33377   1.000
    O102    O    0.83460   0.43766   0.40382   1.000
    O103    O    0.33460   0.43766   0.40385   1.000
    O104    O    0.66076   0.37075   0.49383   1.000
    O105    O    0.16081   0.37076   0.49394   1.000
    O106    O    0.55701   0.56235   0.39623   1.000
    O107    O    0.05702   0.56235   0.39623   1.000
    O108    O    0.66956   0.15528   0.16543   1.000
    O109    O    0.17044   0.15530   0.16587   1.000
    O110    O    0.83388   0.06240   0.09619   1.000
    O111    O    0.33414   0.06237   0.09618   1.000
    O112    O    0.66126   0.12931   0.00508   1.000
    O113    O    0.16101   0.12931   0.00559   1.000
    O114    O    0.55681   0.93773   0.10372   1.000
    O115    O    0.05672   0.93780   0.10375   1.000
    O116    O    0.83403   0.65531   0.83394   1.000
    O117    O    0.33398   0.65531   0.83396   1.000
    O118    O    0.67063   0.56238   0.90383   1.000
    O119    O    0.17061   0.56237   0.90387   1.000
    O120    O    0.84419   0.62922   0.99414   1.000
    O121    O    0.34417   0.62923   0.99416   1.000
    O122    O    0.94815   0.43767   0.89621   1.000
    O123    O    0.44810   0.43769   0.89618   1.000
    O124    O    0.83400   0.84469   0.66612   1.000
    O125    O    0.33403   0.84468   0.66613   1.000
    O126    O    0.67074   0.93768   0.59616   1.000
    O127    O    0.17075   0.93767   0.59618   1.000
    O128    O    0.84429   0.87069   0.50590   1.000
    O129    O    0.34430   0.87069   0.50592   1.000
    O130    O    0.94824   0.06232   0.60374   1.000
    O131    O    0.44828   0.06233   0.60373   1.000
    O132    O    0.53146   0.75001   0.75024   1.000
    O133    O    0.03150   0.75001   0.75007   1.000
    O134    O    0.97359   0.25000   0.25091   1.000
    O135    O    0.47350   0.25003   0.25105   1.000
loop_
    _geom_bond_atom_site_label_1
    _geom_bond_atom_site_label_2
    _geom_bond_distance
    _geom_bond_site_symmetry_2
    _ccdc_geom_bond_type
    H52    C64       1.13342      .   S
    H53    C65       1.13202      .   S
    O112   P38       1.54523      .   S
    O112   V10       1.92749  1_554   S
    O88    P31       1.54496      .   S
    O88    V20       1.92778  1_554   S
    O113   P39       1.54484      .   S
    O113   V9        1.92805  1_554   S
    O89    P33       1.54479      .   S
    O89    V19       1.92810  1_554   S
    V17    O111      1.93034  1_565   S
    V17    O114      1.63101      .   S
    V17    V10       2.25031  1_564   S
    V17    O81       1.92822  1_554   S
    V11    O87       1.93033      .   S
    V11    O90       1.63103      .   S
    V11    V20       2.25011  1_554   S
    V11    O121      1.92818  1_554   S
    V12    O86       2.38751  1_455   S
    V12    O91       1.17239      .   S
    V12    V19       1.90468  1_554   S
    V12    O120      2.35447  1_454   S
    V18    O110      2.38869  1_465   S
    V18    O115      1.17192      .   S
    V18    V9        1.90427  1_564   S
    V18    O80       2.35491  1_454   S
    C65    P39       1.81193      .   S
    C65    P33       1.81190      .   S
    C65    H55       1.10126      .   S
    C64    P38       1.81196      .   S
    C64    P31       1.81177      .   S
    C64    H54       1.10129      .   S
    P38    O110      1.55323      .   S
    P38    O108      1.54121      .   S
    P31    O86       1.55305      .   S
    P31    O84       1.54117      .   S
    P39    O111      1.55299      .   S
    P39    O109      1.54106      .   S
    P33    O87       1.55296      .   S
    P33    O85       1.54107      .   S
    O114   K6        2.73215      .   S
    O90    K4        2.73300      .   S
    O91    K3        2.73341      .   S
    O115   K5        2.73334      .   S
    O108   V25       1.98670      .   S
    O84    V25       1.98556      .   S
    O109   V26       1.98537      .   S
    O85    V26       1.98522      .   S
    V25    O135      1.59976      .   S
    V25    O92       1.98299      .   S
    V25    O100      1.98338      .   S
    V26    O134      1.60010  1_455   S
    V26    O93       1.98292      .   S
    V26    O101      1.98298      .   S
    O92    P34       1.54121      .   S
    O100   P36       1.54106      .   S
    O93    P35       1.54104      .   S
    O101   P37       1.54103      .   S
    H58    C66       1.10120      .   S
    H59    C67       1.10120      .   S
    O98    V13       1.63098      .   S
    O106   V15       1.63100      .   S
    O107   V16       1.17384      .   S
    O99    V14       1.17387      .   S
    O94    P34       1.55264      .   S
    O94    V14       2.38415  1_645   S
    O102   P36       1.55273      .   S
    O102   V16       2.38440  1_655   S
    O95    P35       1.55272      .   S
    O95    V13       1.92985  1_545   S
    O103   P37       1.55273      .   S
    O103   V15       1.92988      .   S
    P34    C66       1.81180      .   S
    P34    O96       1.54432      .   S
    P36    C66       1.81180      .   S
    P36    O104      1.54438      .   S
    P35    C67       1.81182      .   S
    P35    O97       1.54442      .   S
    P37    C67       1.81181      .   S
    P37    O105      1.54442      .   S
    C66    H56       1.09881      .   S
    C67    H57       1.09881      .   S
    V13    O129      1.92791      .   S
    V13    V22       2.24944  1_565   S
    V14    O128      2.35270  1_455   S
    V14    V21       1.90511  1_565   S
    V16    O72       2.35282  1_455   S
    V16    V7        1.90505      .   S
    V15    O73       1.92795      .   S
    V15    V8        2.24954      .   S
    O96    V22       1.92818      .   S
    O104   V8        1.92811      .   S
    O97    V21       1.92808      .   S
    O105   V7        1.92808      .   S
    H45    C61       1.09882      .   S
    H44    C60       1.09882      .   S
    O128   P42       1.54459      .   S
    O72    P27       1.54457      .   S
    O129   P43       1.54458      .   S
    O73    P28       1.54455      .   S
    V22    O126      1.93029  1_545   S
    V22    O131      1.63102      .   S
    V8     O70       1.93024      .   S
    V8     O75       1.63102      .   S
    V21    O127      1.93027  1_545   S
    V21    O130      1.63099  1_455   S
    V7     O71       1.93029      .   S
    V7     O74       1.63098  1_455   S
    C60    P42       1.81196      .   S
    C60    P27       1.81195      .   S
    C60    H46       1.10124      .   S
    C61    P43       1.81190      .   S
    C61    P28       1.81191      .   S
    C61    H47       1.10123      .   S
    P42    O126      1.55283      .   S
    P42    O124      1.54101      .   S
    P27    O70       1.55285      .   S
    P27    O68       1.54100      .   S
    P43    O127      1.55286      .   S
    P43    O125      1.54100      .   S
    P28    O71       1.55285      .   S
    P28    O69       1.54100      .   S
    O124   V23       1.98424      .   S
    O68    V23       1.98416      .   S
    O125   V24       1.98438      .   S
    O69    V24       1.98437      .   S
    K32    O123      2.73382      .   S
    K2     O82       2.54971  1_455   S
    K0     O122      2.49223  1_455   S
    V23    O133      1.60015  1_655   S
    V23    O116      1.98365      .   S
    V23    O76       1.98357      .   S
    V24    O132      1.60001      .   S
    V24    O77       1.98347      .   S
    V24    O117      1.98348      .   S
    O116   P40       1.54096      .   S
    O76    P29       1.54096      .   S
    O77    P30       1.54098      .   S
    O117   P41       1.54095      .   S
    H50    C62       1.10126      .   S
    H51    C63       1.10125      .   S
    O83    V10       1.63079      .   S
    O123   V20       1.63083      .   S
    O82    V9        1.63082  1_655   S
    O122   V19       1.63085  1_655   S
    O78    P29       1.55277      .   S
    O78    V10       1.92934  1_565   S
    O118   P40       1.55281      .   S
    O118   V20       1.92956      .   S
    O119   P41       1.55282      .   S
    O119   V19       1.92983      .   S
    O79    P30       1.55281      .   S
    O79    V9        1.92983  1_565   S
    P29    C62       1.81184      .   S
    P29    O80       1.54458      .   S
    P40    C62       1.81183      .   S
    P40    O120      1.54459      .   S
    P30    C63       1.81195      .   S
    P30    O81       1.54462      .   S
    P41    C63       1.81193      .   S
    P41    O121      1.54462      .   S
    C62    H48       1.09879      .   S
    C63    H49       1.09878      .   S
    O69    K32       2.76342      .   S
    O74    K0        2.49331  1_655   S
    O75    K32       2.73457      .   S
    O77    K1        2.60887  1_565   S
    O79    K1        3.13782  1_565   S
    O83    K1        2.78611      .   S
    O84    K4        2.76470      .   S
    O85    K3        2.76406      .   S
    O92    K6        2.76165  1_545   S
    O93    K5        2.76277  1_545   S
    O98    K6        2.73519      .   S
    O99    K5        2.73417      .   S
    O100   K4        2.76264      .   S
    O101   K3        2.76286      .   S
    O106   K4        2.73430      .   S
    O107   K3        2.73397      .   S
    O108   K6        2.76632  1_545   S
    O109   K5        2.76413  1_545   S
    O117   K32       2.76386      .   S
    O125   K1        2.60825  1_565   S
    O127   K1        3.13602  1_565   S
    O130   K2        2.55078  1_655   S
    O131   K1        2.78718      .   S
