# CIF file generated by openbabel 2.4.90, see http://openbabel.sf.net
data_I
_chemical_name_common ''
_cell_length_a 10.85
_cell_length_b 14.447
_cell_length_c 15.857
_cell_angle_alpha 90
_cell_angle_beta 89.976
_cell_angle_gamma 90.003
_space_group_name_H-M_alt 'P 1'
_space_group_name_Hall 'P 1'
loop_
    _symmetry_equiv_pos_as_xyz
    x,y,z
loop_
    _atom_site_label
    _atom_site_type_symbol
    _atom_site_fract_x
    _atom_site_fract_y
    _atom_site_fract_z
    _atom_site_occupancy
    K0      K    0.00000   0.48765   0.75001   1.000
    K1      K    0.33233   0.00000   0.74997   1.000
    K2      K    0.00000   0.00000   0.75001   1.000
    K3      K    0.17255   0.51232   0.24992   1.000
    K4      K    0.67252   0.51231   0.24988   1.000
    K5      K    0.17254   0.98767   0.24990   1.000
    K6      K    0.67249   0.98770   0.24980   1.000
    V7      V    0.06714   0.46798   0.54718   1.000
    V8      V    0.56717   0.46796   0.54715   1.000
    V9      V    0.06698   0.03205   0.95276   1.000
    V10     V    0.56700   0.03201   0.95259   1.000
    V11     V    0.43792   0.53197   0.04723   1.000
    V12     V    0.00000   0.53195   0.04725   1.000
    V13     V    0.43807   0.96792   0.45279   1.000
    V14     V    0.00000   0.96792   0.45279   1.000
    V15     V    0.43807   0.53209   0.45280   1.000
    V16     V    0.00000   0.53208   0.45279   1.000
    V17     V    0.43792   0.96807   0.04721   1.000
    V18     V    0.00000   0.96810   0.04726   1.000
    V19     V    0.06702   0.46795   0.95276   1.000
    V20     V    0.56702   0.46797   0.95268   1.000
    V21     V    0.06715   0.03201   0.54718   1.000
    V22     V    0.56718   0.03203   0.54713   1.000
    V23     V    0.88402   0.75001   0.75004   1.000
    V24     V    0.38400   0.75002   0.75010   1.000
    V25     V    0.62094   0.24998   0.24998   1.000
    V26     V    0.12106   0.24999   0.25010   1.000
    K27     K    0.33239   0.48766   0.74999   1.000
    O28     O    0.94823   0.43768   0.60375   1.000
    O29     O    0.44826   0.43768   0.60374   1.000
    O30     O    0.94814   0.06235   0.89620   1.000
    O31     O    0.44804   0.06231   0.89615   1.000
    O32     O    0.55684   0.56227   0.10374   1.000
    O33     O    0.05680   0.56224   0.10375   1.000
    O34     O    0.55701   0.93765   0.39623   1.000
    O35     O    0.05703   0.93763   0.39624   1.000
    O36     O    0.55701   0.56235   0.39623   1.000
    O37     O    0.05702   0.56235   0.39623   1.000
    O38     O    0.55681   0.93773   0.10372   1.000
    O39     O    0.05672   0.93780   0.10375   1.000
    O40     O    0.94815   0.43767   0.89621   1.000
    O41     O    0.44810   0.43769   0.89618   1.000
    O42     O    0.94824   0.06232   0.60374   1.000
    O43     O    0.44828   0.06233   0.60373   1.000
    O44     O    0.53146   0.75001   0.75024   1.000
    O45     O    0.03150   0.75001   0.75007   1.000
    O46     O    0.97359   0.25000   0.25091   1.000
    O47     O    0.47350   0.25003   0.25105   1.000
loop_
    _geom_bond_atom_site_label_1
    _geom_bond_atom_site_label_2
    _geom_bond_distance
    _geom_bond_site_symmetry_2
    _ccdc_geom_bond_type
    V17    O38       1.63101      .   S
    V17    V10       2.25031  1_564   S
    V11    O32       1.63103      .   S
    V11    V20       2.25011  1_554   S
    V12    O33       1.17239      .   S
    V12    V19       1.90468  1_554   S
    V18    O39       1.17192      .   S
    V18    V9        1.90427  1_564   S
    O38    K6        2.73215      .   S
    O32    K4        2.73300      .   S
    O33    K3        2.73341      .   S
    O39    K5        2.73334      .   S
    V25    O47       1.59976      .   S
    V26    O46       1.60010  1_455   S
    O34    V13       1.63098      .   S
    O36    V15       1.63100      .   S
    O37    V16       1.17384      .   S
    O35    V14       1.17387      .   S
    V13    V22       2.24944  1_565   S
    V14    V21       1.90511  1_565   S
    V16    V7        1.90505      .   S
    V15    V8        2.24954      .   S
    V22    O43       1.63102      .   S
    V8     O29       1.63102      .   S
    V21    O42       1.63099  1_455   S
    V7     O28       1.63098  1_455   S
    K27    O41       2.73382      .   S
    K2     O30       2.54971  1_455   S
    K0     O40       2.49223  1_455   S
    V23    O45       1.60015  1_655   S
    V24    O44       1.60001      .   S
    O31    V10       1.63079      .   S
    O41    V20       1.63083      .   S
    O30    V9        1.63082  1_655   S
    O40    V19       1.63085  1_655   S
    O28    K0        2.49331  1_655   S
    O29    K27       2.73457      .   S
    O31    K1        2.78611      .   S
    O34    K6        2.73519      .   S
    O35    K5        2.73417      .   S
    O36    K4        2.73430      .   S
    O37    K3        2.73397      .   S
    O42    K2        2.55078  1_655   S
    O43    K1        2.78718      .   S
