# CIF file generated by openbabel 2.4.90, see http://openbabel.sf.net
data_I
_chemical_name_common ''
_cell_length_a 10.85
_cell_length_b 14.447
_cell_length_c 15.857
_cell_angle_alpha 90
_cell_angle_beta 89.976
_cell_angle_gamma 90.003
_space_group_name_H-M_alt 'P 1'
_space_group_name_Hall 'P 1'
loop_
    _symmetry_equiv_pos_as_xyz
    x,y,z
loop_
    _atom_site_label
    _atom_site_type_symbol
    _atom_site_fract_x
    _atom_site_fract_y
    _atom_site_fract_z
    _atom_site_occupancy
    Zr0     Zr   0.33239   0.48766   0.74999   1.000
    Zr1     Zr   0.00000   0.48765   0.75001   1.000
    Zr2     Zr   0.33233   0.00000   0.74997   1.000
    Zr3     Zr   0.00000   0.00000   0.75001   1.000
    Zr4     Zr   0.17255   0.51232   0.24992   1.000
    Zr5     Zr   0.67252   0.51231   0.24988   1.000
    Zr6     Zr   0.17254   0.98767   0.24990   1.000
    Zr7     Zr   0.67249   0.98770   0.24980   1.000
    Zr8     Zr   0.94823   0.43768   0.60375   1.000
    Zr9     Zr   0.44826   0.43768   0.60374   1.000
    Zr10    Zr   0.94814   0.06235   0.89620   1.000
    Zr11    Zr   0.44804   0.06231   0.89615   1.000
    Zr12    Zr   0.55684   0.56227   0.10374   1.000
    Zr13    Zr   0.05680   0.56224   0.10375   1.000
    Zr14    Zr   0.55701   0.93765   0.39623   1.000
    Zr15    Zr   0.05703   0.93763   0.39624   1.000
    Zr16    Zr   0.55701   0.56235   0.39623   1.000
    Zr17    Zr   0.05702   0.56235   0.39623   1.000
    Zr18    Zr   0.55681   0.93773   0.10372   1.000
    Zr19    Zr   0.05672   0.93780   0.10375   1.000
    Zr20    Zr   0.94815   0.43767   0.89621   1.000
    Zr21    Zr   0.44810   0.43769   0.89618   1.000
    Zr22    Zr   0.94824   0.06232   0.60374   1.000
    Zr23    Zr   0.44828   0.06233   0.60373   1.000
    O24     O    0.61465   0.96271   0.17676   1.000
    O25     O    0.61468   0.53729   0.17681   1.000
    O26     O    0.11467   0.53728   0.17683   1.000
    O27     O    0.11463   0.96273   0.17683   1.000
    O28     O    0.39024   0.46267   0.82309   1.000
    O29     O    0.97407   0.03117   0.82311   1.000
    O30     O    0.97408   0.46266   0.82311   1.000
    O31     O    0.97411   0.46267   0.67688   1.000
    O32     O    0.39033   0.46267   0.67687   1.000
    O33     O    0.39019   0.03116   0.82306   1.000
    O34     O    0.61475   0.96267   0.32301   1.000
    O35     O    0.11479   0.96265   0.32307   1.000
    O36     O    0.61476   0.53733   0.32306   1.000
    O37     O    0.11478   0.53734   0.32307   1.000
    O38     O    0.97412   0.03116   0.67688   1.000
    O39     O    0.39031   0.03117   0.67685   1.000
    N40     N    0.74407   0.35522   0.08328   1.000
    N41     N    0.74392   0.14478   0.08315   1.000
    O42     O    0.67072   0.38662   0.18677   1.000
    O43     O    0.67029   0.11339   0.18652   1.000
    O44     O    0.81780   0.21053   0.06918   1.000
    N45     N    0.74469   0.14478   0.41637   1.000
    N46     N    0.74465   0.35520   0.41641   1.000
    O47     O    0.67186   0.11339   0.31264   1.000
    O48     O    0.67180   0.38657   0.31272   1.000
    O49     O    0.81827   0.28945   0.43051   1.000
    N50     N    0.26067   0.85521   0.58349   1.000
    N51     N    0.26067   0.64479   0.58351   1.000
    O52     O    0.33361   0.61342   0.68711   1.000
    O53     O    0.18696   0.78945   0.56957   1.000
    N54     N    0.76061   0.64478   0.91659   1.000
    N55     N    0.76059   0.85521   0.91659   1.000
    O56     O    0.68692   0.78944   0.93059   1.000
    N57     N    0.26058   0.64478   0.91662   1.000
    N58     N    0.26055   0.85523   0.91662   1.000
    O59     O    0.33358   0.61339   0.81297   1.000
    O60     O    0.18689   0.71054   0.93061   1.000
    N61     N    0.24423   0.35521   0.08338   1.000
    N62     N    0.24420   0.14479   0.08335   1.000
    O63     O    0.17097   0.11339   0.18688   1.000
    O64     O    0.17101   0.38660   0.18691   1.000
    O65     O    0.31801   0.21055   0.06923   1.000
    N66     N    0.76065   0.85522   0.58348   1.000
    N67     N    0.76065   0.64479   0.58348   1.000
    O68     O    0.68694   0.71054   0.56956   1.000
    N69     N    0.24466   0.35522   0.41650   1.000
    N70     N    0.24467   0.14478   0.41649   1.000
    O71     O    0.17177   0.11339   0.31280   1.000
    O72     O    0.17176   0.38660   0.31281   1.000
    O73     O    0.31827   0.28946   0.43058   1.000
    Zr74    Zr   0.03351   0.49995   0.00000   1.000
    O75     O    0.08911   0.51936   0.95805   1.000
    O76     O    0.08550   0.44748   0.99621   1.000
    O77     O    0.02055   0.47638   0.96224   1.000
    O78     O    0.95452   0.48058   0.04197   1.000
    O79     O    0.03095   0.52352   0.03775   1.000
    O80     O    0.95832   0.55242   0.00371   1.000
    Zr81    Zr   0.03357   0.50003   0.49999   1.000
    O82     O    0.02063   0.47643   0.53772   1.000
    O83     O    0.08921   0.51939   0.54196   1.000
    O84     O    0.08548   0.44755   0.50362   1.000
    O85     O    0.03104   0.52362   0.46225   1.000
    O86     O    0.95476   0.48064   0.45802   1.000
    O87     O    0.95840   0.55251   0.49631   1.000
    Zr88    Zr   0.03358   0.99996   0.49998   1.000
    O89     O    0.08921   0.98061   0.54196   1.000
    O90     O    0.02063   0.02357   0.53772   1.000
    O91     O    0.08549   0.05245   0.50361   1.000
    O92     O    0.03105   0.97637   0.46225   1.000
    O93     O    0.95840   0.94748   0.49630   1.000
    O94     O    0.95478   0.01935   0.45802   1.000
    Zr95    Zr   0.03349   0.00007   0.00001   1.000
    O96     O    0.03093   0.97651   0.03776   1.000
    O97     O    0.95830   0.94760   0.00371   1.000
    O98     O    0.95445   0.01945   0.04198   1.000
    O99     O    0.08550   0.05253   0.99619   1.000
    O100    O    0.02053   0.02364   0.96224   1.000
    O101    O    0.08907   0.98065   0.95805   1.000
    Zr102   Zr   0.50247   0.49997   0.99995   1.000
    O103    O    0.57001   0.44749   0.99609   1.000
    O104    O    0.57360   0.51937   0.95800   1.000
    O105    O    0.50501   0.47640   0.96219   1.000
    O106    O    0.49992   0.52354   0.03772   1.000
    O107    O    0.43129   0.48060   0.04195   1.000
    O108    O    0.43504   0.55244   0.00369   1.000
    Zr109   Zr   0.50262   0.50002   0.49998   1.000
    O110    O    0.56999   0.44754   0.50357   1.000
    O111    O    0.50517   0.47642   0.53771   1.000
    O112    O    0.57373   0.51938   0.54194   1.000
    O113    O    0.50008   0.52362   0.46225   1.000
    O114    O    0.43519   0.55251   0.49632   1.000
    O115    O    0.43154   0.48064   0.45803   1.000
    Zr116   Zr   0.45773   0.75001   0.75017   1.000
    O117    O    0.40211   0.71450   0.78158   1.000
    O118    O    0.40213   0.78551   0.71865   1.000
    O119    O    0.40209   0.78553   0.78158   1.000
    O120    O    0.40212   0.71451   0.71865   1.000
    Zr121   Zr   0.50246   0.00004   0.99990   1.000
    O122    O    0.43127   0.01942   0.04192   1.000
    O123    O    0.43503   0.94758   0.00365   1.000
    O124    O    0.49991   0.97647   0.03768   1.000
    O125    O    0.57008   0.05251   0.99593   1.000
    O126    O    0.57358   0.98061   0.95795   1.000
    O127    O    0.50499   0.02360   0.96214   1.000
    Zr128   Zr   0.50262   0.99997   0.49996   1.000
    O129    O    0.50518   0.02358   0.53769   1.000
    O130    O    0.57374   0.98062   0.54193   1.000
    O131    O    0.56998   0.05245   0.50353   1.000
    O132    O    0.43155   0.01936   0.45802   1.000
    O133    O    0.50008   0.97638   0.46223   1.000
    O134    O    0.43518   0.94749   0.49630   1.000
    Zr135   Zr   0.04733   0.24999   0.25051   1.000
    O136    O    0.10311   0.28551   0.28168   1.000
    O137    O    0.10271   0.21448   0.21872   1.000
    O138    O    0.10273   0.28551   0.21873   1.000
    O139    O    0.10311   0.21448   0.28168   1.000
    Zr140   Zr   0.95776   0.75001   0.75005   1.000
    O141    O    0.90214   0.71450   0.78151   1.000
    O142    O    0.90213   0.78551   0.71858   1.000
    O143    O    0.90213   0.71450   0.71858   1.000
    O144    O    0.90214   0.78551   0.78151   1.000
    Zr145   Zr   0.54722   0.25000   0.25052   1.000
    O146    O    0.60310   0.21448   0.28160   1.000
    O147    O    0.60231   0.21448   0.21854   1.000
    O148    O    0.60252   0.28552   0.21866   1.000
    O149    O    0.60306   0.28549   0.28163   1.000
    O150    O    0.27227   0.91838   0.83918   1.000
    O151    O    0.27238   0.91838   0.66086   1.000
loop_
    _geom_bond_atom_site_label_1
    _geom_bond_atom_site_label_2
    _geom_bond_distance
    _geom_bond_site_symmetry_2
    _ccdc_geom_bond_type
    Zr18   O24       1.36608      .   S
    Zr7    O24       1.36608      .   S
    Zr12   O25       1.36650      .   S
    Zr5    O25       1.36650      .   S
    Zr13   O26       1.36671      .   S
    Zr4    O26       1.36671      .   S
    Zr19   O27       1.36667      .   S
    Zr6    O27       1.36667      .   S
    Zr0    O28       1.36691      .   S
    Zr21   O28       1.36691      .   S
    Zr3    O29       1.27485  1_455   S
    Zr10   O29       1.27485      .   S
    Zr1    O30       1.24611  1_455   S
    Zr20   O30       1.24611      .   S
    Zr8    O31       1.24666      .   S
    Zr1    O31       1.24666  1_455   S
    Zr9    O32       1.36728      .   S
    Zr0    O32       1.36728      .   S
    Zr11   O33       1.39305      .   S
    Zr2    O33       1.39305      .   S
    Zr14   O34       1.36760      .   S
    Zr7    O34       1.36760      .   S
    Zr15   O35       1.36708      .   S
    Zr6    O35       1.36708      .   S
    Zr16   O36       1.36715      .   S
    Zr5    O36       1.36715      .   S
    Zr17   O37       1.36698      .   S
    Zr4    O37       1.36698      .   S
    Zr22   O38       1.27539      .   S
    Zr3    O38       1.27539  1_455   S
    Zr23   O39       1.39359      .   S
    Zr2    O39       1.39359      .   S
    N40    O42       1.87907      .   S
    Zr5    O42       2.07353      .   S
    N41    O43       1.87874      .   S
    Zr7    O43       2.07474  1_565   S
    N40    O44       2.24933      .   S
    N41    O44       1.26244      .   S
    N45    O47       1.88064      .   S
    Zr7    O47       2.07123  1_565   S
    N46    O48       1.88014      .   S
    Zr5    O48       2.07198      .   S
    N45    O49       2.24862      .   S
    N46    O49       1.26120      .   S
    N51    O52       1.87930      .   S
    Zr0    O52       2.07257      .   S
    N51    O53       2.24859      .   S
    N50    O53       1.26133      .   S
    N54    O56       2.24865      .   S
    N55    O56       1.26127      .   S
    N57    O59       1.87973      .   S
    Zr0    O59       2.07289      .   S
    N58    O60       2.24890      .   S
    N57    O60       1.26130      .   S
    N62    O63       1.87904      .   S
    Zr6    O63       2.07310  1_565   S
    N61    O64       1.87908      .   S
    Zr4    O64       2.07305      .   S
    N61    O65       2.24926      .   S
    N62    O65       1.26240      .   S
    N66    O68       2.24873      .   S
    N67    O68       1.26134      .   S
    N70    O71       1.88042      .   S
    Zr6    O71       2.07208  1_565   S
    N69    O72       1.88030      .   S
    Zr4    O72       2.07215      .   S
    N70    O73       2.24869      .   S
    N69    O73       1.26119      .   S
    Zr74   O75       0.94064  1_554   S
    N57    O75       2.67857      .   S
    Zr74   O76       0.94685  1_554   S
    N61    O76       2.57979  1_554   S
    Zr74   O77       0.70306  1_554   S
    Zr20   O77       1.42365  1_655   S
    Zr74   O78       1.12042  1_455   S
    N40    O78       2.98679      .   S
    Zr74   O79       0.68922      .   S
    Zr13   O79       1.21945      .   S
    Zr74   O80       1.11521  1_455   S
    N54    O80       2.87978  1_556   S
    Zr81   O82       0.70286      .   S
    Zr8    O82       1.42335  1_655   S
    Zr81   O83       0.94122      .   S
    N51    O83       2.67920      .   S
    Zr81   O84       0.94631      .   S
    N69    O84       2.58236      .   S
    Zr81   O85       0.68921      .   S
    Zr17   O85       1.21988      .   S
    Zr81   O86       1.11929  1_455   S
    N46    O86       2.98618      .   S
    Zr81   O87       1.11524  1_455   S
    N67    O87       2.87907      .   S
    Zr88   O89       0.94125      .   S
    N50    O89       2.67918      .   S
    Zr88   O90       0.70287  1_565   S
    Zr22   O90       1.42337  1_655   S
    Zr88   O91       0.94626  1_565   S
    N70    O91       2.58238      .   S
    Zr88   O92       0.68921      .   S
    Zr15   O92       1.21987      .   S
    Zr88   O93       1.11519  1_455   S
    N66    O93       2.87894      .   S
    Zr88   O94       1.11920  1_465   S
    N45    O94       2.98619      .   S
    Zr95   O96       0.68916  1_545   S
    Zr19   O96       1.21925      .   S
    Zr95   O97       1.11515  1_445   S
    N55    O97       2.87997  1_556   S
    Zr95   O98       1.12089  1_455   S
    N41    O98       2.98697      .   S
    Zr95   O99       0.94678  1_554   S
    N62    O99       2.57946  1_554   S
    Zr95   O100      0.70309  1_554   S
    Zr10   O100      1.42374  1_655   S
    Zr95   O101      0.94062  1_544   S
    N58    O101      2.67870      .   S
    Zr102  O103      1.05624      .   S
    N40    O103      2.69401  1_554   S
    Zr102  O104      1.05656      .   S
    N54    O104      2.79808      .   S
    Zr102  O105      0.68938      .   S
    Zr21   O105      1.33798      .   S
    Zr102  O106      0.68946  1_556   S
    Zr12   O106      1.33820      .   S
    Zr102  O107      1.05727  1_556   S
    N61    O107      2.79833      .   S
    Zr102  O108      1.05519  1_556   S
    N57    O108      2.69657  1_556   S
    Zr109  O110      1.05479      .   S
    N46    O110      2.69792      .   S
    Zr109  O111      0.68927      .   S
    Zr9    O111      1.33802      .   S
    Zr109  O112      1.05678      .   S
    N67    O112      2.79827      .   S
    Zr109  O113      0.68917      .   S
    Zr16   O113      1.33785      .   S
    Zr109  O114      1.05537      .   S
    N51    O114      2.69676      .   S
    Zr109  O115      1.05635      .   S
    N69    O115      2.79817      .   S
    Zr116  O117      0.93559      .   S
    N57    O117      2.82040      .   S
    Zr116  O118      0.93656      .   S
    N50    O118      2.82230      .   S
    Zr116  O119      0.93568      .   S
    N58    O119      2.82047      .   S
    Zr116  O120      0.93654      .   S
    N51    O120      2.82227      .   S
    Zr121  O122      1.05757  1_556   S
    N62    O122      2.79846      .   S
    Zr121  O123      1.05503  1_546   S
    N58    O123      2.69642  1_556   S
    Zr121  O124      0.68969  1_546   S
    Zr18   O124      1.33850      .   S
    Zr121  O125      1.05678      .   S
    N41    O125      2.69242  1_554   S
    Zr121  O126      1.05649  1_545   S
    N55    O126      2.79810      .   S
    Zr121  O127      0.68934      .   S
    Zr11   O127      1.33787      .   S
    Zr128  O129      0.68929  1_565   S
    Zr23   O129      1.33808      .   S
    Zr128  O130      1.05686      .   S
    N66    O130      2.79833      .   S
    Zr128  O131      1.05458  1_565   S
    N45    O131      2.69811      .   S
    Zr128  O132      1.05630  1_565   S
    N70    O132      2.79823      .   S
    Zr128  O133      0.68909      .   S
    Zr14   O133      1.33775      .   S
    Zr128  O134      1.05535      .   S
    N50    O134      2.69665      .   S
    Zr135  O136      0.93491      .   S
    N69    O136      2.81882      .   S
    Zr135  O137      0.93710      .   S
    N62    O137      2.82405      .   S
    Zr135  O138      0.93710      .   S
    N61    O138      2.82397      .   S
    Zr135  O139      0.93499      .   S
    N70    O139      2.81881      .   S
    Zr140  O141      0.93585      .   S
    N54    O141      2.82095      .   S
    Zr140  O142      0.93638      .   S
    N66    O142      2.82183      .   S
    Zr140  O143      0.93633      .   S
    N67    O143      2.82177      .   S
    Zr140  O144      0.93586      .   S
    N55    O144      2.82095      .   S
    Zr145  O146      0.93496      .   S
    N45    O146      2.81857      .   S
    Zr145  O147      0.93677      .   S
    N41    O147      2.82510      .   S
    Zr145  O148      0.93715      .   S
    N40    O148      2.82448      .   S
    Zr145  O149      0.93467      .   S
    N46    O149      2.81867      .   S
    Zr2    O150      1.95332  1_545   S
    N58    O150      1.53496      .   S
    Zr2    O151      1.95215  1_545   S
    N50    O151      1.53430      .   S
