# CIF file generated by openbabel 2.4.90, see http://openbabel.sf.net
data_I
_chemical_name_common ''
_cell_length_a 23.442
_cell_length_b 23.974
_cell_length_c 14.059
_cell_angle_alpha 112.345
_cell_angle_beta 89.896
_cell_angle_gamma 118.644
_space_group_name_H-M_alt 'P 1'
_space_group_name_Hall 'P 1'
loop_
    _symmetry_equiv_pos_as_xyz
    x,y,z
loop_
    _atom_site_label
    _atom_site_type_symbol
    _atom_site_fract_x
    _atom_site_fract_y
    _atom_site_fract_z
    _atom_site_occupancy
    Zn0     Zn   0.16816   0.85875   0.75525   1.000
    Zn1     Zn   0.66818   0.35876   0.75523   1.000
    Zn2     Zn   0.66817   0.85872   0.75500   1.000
    Zn3     Zn   0.19290   0.36274   0.25987   1.000
    Zn4     Zn   0.19292   0.86277   0.25999   1.000
    Zn5     Zn   0.69292   0.36272   0.25989   1.000
    Zn6     Zn   0.69295   0.86275   0.26002   1.000
    Zn7     Zn   0.16817   0.35880   0.75529   1.000
    C8      C    0.20526   0.49639   0.89786   1.000
    C9      C    0.20519   0.99632   0.89780   1.000
    C10     C    0.70529   0.49636   0.89782   1.000
    C11     C    0.70522   0.99629   0.89776   1.000
    C12     C    0.16033   0.22671   0.12155   1.000
    C13     C    0.16037   0.72674   0.12165   1.000
    C14     C    0.66038   0.22668   0.12159   1.000
    C15     C    0.66042   0.72671   0.12170   1.000
    O16     O    0.28714   0.94119   0.33002   1.000
    O17     O    0.78715   0.44114   0.32993   1.000
    O18     O    0.78716   0.94118   0.33005   1.000
    O19     O    0.07258   0.28334   0.69021   1.000
    O20     O    0.07258   0.78326   0.69017   1.000
    O21     O    0.57259   0.28333   0.69017   1.000
    O22     O    0.57258   0.78326   0.69012   1.000
    O23     O    0.11243   0.21524   0.59609   1.000
    C24     C    0.29275   0.49878   0.40040   1.000
    C25     C    0.29275   0.99881   0.40052   1.000
    C26     C    0.79278   0.49876   0.40046   1.000
    C27     C    0.79277   0.99879   0.40055   1.000
    C28     C    0.06531   0.22464   0.61967   1.000
    C29     C    0.06532   0.72458   0.61961   1.000
    C30     C    0.56531   0.22463   0.61966   1.000
    C31     C    0.56532   0.72457   0.61959   1.000
    O32     O    0.26091   0.00170   0.91509   1.000
    O33     O    0.26097   0.50175   0.91516   1.000
    O34     O    0.76094   0.00167   0.91499   1.000
    O35     O    0.76101   0.50172   0.91507   1.000
    O36     O    0.15358   0.43922   0.82863   1.000
    O37     O    0.15352   0.93915   0.82856   1.000
    O38     O    0.65360   0.43919   0.82861   1.000
    O39     O    0.65353   0.93912   0.82854   1.000
    O40     O    0.21138   0.28495   0.19107   1.000
    O41     O    0.21142   0.78499   0.19110   1.000
    O42     O    0.71142   0.28492   0.19112   1.000
    O43     O    0.71146   0.78496   0.19121   1.000
    O44     O    0.10429   0.21835   0.09993   1.000
    O45     O    0.10433   0.71837   0.10001   1.000
    O46     O    0.60434   0.21832   0.09997   1.000
    O47     O    0.60438   0.71834   0.10006   1.000
    O48     O    0.24306   0.00536   0.42001   1.000
    O49     O    0.24308   0.50533   0.41994   1.000
    O50     O    0.74308   0.00533   0.42000   1.000
    O51     O    0.74309   0.50530   0.41995   1.000
    O52     O    0.28712   0.44116   0.32991   1.000
    O53     O    0.11245   0.71520   0.59602   1.000
    O54     O    0.61243   0.21522   0.59607   1.000
    O55     O    0.61245   0.71518   0.59601   1.000
    Ts56    Ts   0.18744   0.86675   0.72161   1.000
    Ts57    Ts   0.17980   0.84974   0.78710   1.000
    Ts58    Ts   0.68746   0.36675   0.72159   1.000
    Ts59    Ts   0.67982   0.34974   0.78709   1.000
    Ts60    Ts   0.68745   0.86672   0.72143   1.000
    Ts61    Ts   0.67980   0.84971   0.78690   1.000
    Ts62    Ts   0.17266   0.35392   0.29221   1.000
    Ts63    Ts   0.18127   0.37087   0.22668   1.000
    Ts64    Ts   0.17269   0.85394   0.29232   1.000
    Ts65    Ts   0.18129   0.87089   0.22679   1.000
    Ts66    Ts   0.67268   0.35389   0.29219   1.000
    Ts67    Ts   0.68130   0.37084   0.22669   1.000
    Ts68    Ts   0.67271   0.85391   0.29234   1.000
    Ts69    Ts   0.68132   0.87086   0.22681   1.000
    Ts70    Ts   0.18745   0.36678   0.72163   1.000
    Ts71    Ts   0.17982   0.34978   0.78715   1.000
    Og72    Og   0.20201   0.51642   0.91764   1.000
    Og73    Og   0.20194   0.01635   0.91757   1.000
    Og74    Og   0.70204   0.51639   0.91761   1.000
    Og75    Og   0.70197   0.01633   0.91754   1.000
    Og76    Og   0.16441   0.20691   0.10288   1.000
    Og77    Og   0.16446   0.70695   0.10297   1.000
    Og78    Og   0.66445   0.20688   0.10293   1.000
    Og79    Og   0.66451   0.70692   0.10302   1.000
    Og80    Og   0.31581   0.51842   0.41985   1.000
    Og81    Og   0.31581   0.01846   0.41995   1.000
    Og82    Og   0.81583   0.51839   0.41987   1.000
    Og83    Og   0.81583   0.01844   0.41997   1.000
    Og84    Og   0.04169   0.20522   0.60140   1.000
    Og85    Og   0.04170   0.70516   0.60133   1.000
    Og86    Og   0.54168   0.20521   0.60138   1.000
    Og87    Og   0.54169   0.70515   0.60129   1.000
loop_
    _geom_bond_atom_site_label_1
    _geom_bond_atom_site_label_2
    _geom_bond_distance
    _geom_bond_site_symmetry_2
    _ccdc_geom_bond_type
    O44    C12       1.24942      .   S
    O46    C14       1.24941      .   S
    O45    C13       1.24944      .   S
    O47    C15       1.24944      .   S
    C12    O40       1.30443      .   S
    C14    O42       1.30442      .   S
    C13    O41       1.30415      .   S
    C15    O43       1.30440      .   S
    O40    Zn3       2.00078      .   S
    O41    Zn4       2.00098      .   S
    O42    Zn5       2.00092      .   S
    O43    Zn6       2.00101      .   S
    Zn3    O52       2.00051      .   S
    Zn5    O17       2.00053      .   S
    Zn4    O16       2.00032      .   S
    Zn6    O18       2.00032      .   S
    O52    C24       1.30095      .   S
    O17    C26       1.30113      .   S
    O16    C25       1.30114      .   S
    O18    C27       1.30112      .   S
    C24    O49       1.26395      .   S
    C26    O51       1.26387      .   S
    C25    O48       1.26405  1_565   S
    C27    O50       1.26400  1_565   S
    O55    C31       1.24967      .   S
    O53    C29       1.24966      .   S
    O54    C30       1.24968      .   S
    O23    C28       1.24965      .   S
    C31    O22       1.30460      .   S
    C29    O20       1.30463      .   S
    C30    O21       1.30457      .   S
    C28    O19       1.30459      .   S
    O22    Zn2       1.99800      .   S
    O20    Zn0       1.99835      .   S
    O21    Zn1       1.99831      .   S
    O19    Zn7       1.99836      .   S
    Zn2    O39       2.00476      .   S
    Zn1    O38       2.00426      .   S
    Zn0    O37       2.00435      .   S
    Zn7    O36       2.00423      .   S
    O39    C11       1.30062      .   S
    O37    C9        1.30062      .   S
    O38    C10       1.30064      .   S
    O36    C8        1.30064      .   S
    C11    O34       1.26385  1_565   S
    C9     O32       1.26385  1_565   S
    C10    O35       1.26401      .   S
    C8     O33       1.26403      .   S
    Zn0    Ts56      0.67067      .   S
    Zn0    Ts57      0.67256      .   S
    Zn1    Ts58      0.67063      .   S
    Zn1    Ts59      0.67266      .   S
    Zn2    Ts60      0.66990      .   S
    Zn2    Ts61      0.67305      .   S
    Zn3    Ts62      0.67272      .   S
    Zn3    Ts63      0.67106      .   S
    Zn4    Ts64      0.67270      .   S
    Zn4    Ts65      0.67110      .   S
    Zn5    Ts66      0.67246      .   S
    Zn5    Ts67      0.67108      .   S
    Zn6    Ts68      0.67270      .   S
    Zn6    Ts69      0.67112      .   S
    Zn7    Ts70      0.67088      .   S
    Zn7    Ts71      0.67263      .   S
    C8     Og72      0.49716      .   S
    C9     Og73      0.49725  1_565   S
    C10    Og74      0.49716      .   S
    C11    Og75      0.49724  1_565   S
    C12    Og76      0.50198      .   S
    C13    Og77      0.50197      .   S
    C14    Og78      0.50198      .   S
    C15    Og79      0.50198      .   S
    C24    Og80      0.49718      .   S
    C25    Og81      0.49715  1_565   S
    C26    Og82      0.49710      .   S
    C27    Og83      0.49713  1_565   S
    C28    Og84      0.50181      .   S
    C29    Og85      0.50182      .   S
    C30    Og86      0.50186      .   S
    C31    Og87      0.50189      .   S
