# CIF file generated by openbabel 2.4.90, see http://openbabel.sf.net
data_I
_chemical_name_common ''
_cell_length_a 14.331
_cell_length_b 14.334
_cell_length_c 26.528
_cell_angle_alpha 80.065
_cell_angle_beta 80.129
_cell_angle_gamma 86.374
_space_group_name_H-M_alt 'P 1'
_space_group_name_Hall 'P 1'
loop_
    _symmetry_equiv_pos_as_xyz
    x,y,z
loop_
    _atom_site_label
    _atom_site_type_symbol
    _atom_site_fract_x
    _atom_site_fract_y
    _atom_site_fract_z
    _atom_site_occupancy
    Zn0     Zn   0.14478   0.59291   0.93165   1.000
    Zn1     Zn   0.82713   0.11896   0.41061   1.000
    Zn2     Zn   0.59635   0.14497   0.43131   1.000
    Zn3     Zn   0.17285   0.88060   0.58939   1.000
    Zn4     Zn   0.40362   0.85457   0.56870   1.000
    Zn5     Zn   0.88100   0.17627   0.08953   1.000
    Zn6     Zn   0.85523   0.40700   0.06828   1.000
    Zn7     Zn   0.11900   0.82363   0.91044   1.000
