# CIF file generated by openbabel 2.4.90, see http://openbabel.sf.net
data_I
_chemical_name_common ''
_cell_length_a 6.754
_cell_length_b 6.935
_cell_length_c 6.966
_cell_angle_alpha 90
_cell_angle_beta 90.011
_cell_angle_gamma 90.005
_space_group_name_H-M_alt 'P 1'
_space_group_name_Hall 'P 1'
loop_
    _symmetry_equiv_pos_as_xyz
    x,y,z
loop_
    _atom_site_label
    _atom_site_type_symbol
    _atom_site_fract_x
    _atom_site_fract_y
    _atom_site_fract_z
    _atom_site_occupancy
    H0      H    0.68634   0.70062   0.99954   1.000
    H1      H    0.68648   0.29943   0.99950   1.000
    H2      H    0.31364   0.70062   0.99932   1.000
    H3      H    0.31378   0.29943   0.99922   1.000
    C4      C    0.99788   0.68799   0.31326   1.000
    C5      C    0.99790   0.31206   0.68695   1.000
    C6      C    0.99787   0.68800   0.68696   1.000
    C7      C    0.99791   0.31207   0.31326   1.000
    C8      C    0.60251   0.83431   0.99938   1.000
    C9      C    0.60263   0.16574   0.99936   1.000
    C10     C    0.39749   0.83430   0.99932   1.000
    C11     C    0.39761   0.16574   0.99918   1.000
    N12     N    0.99910   0.80657   0.19297   1.000
    N13     N    0.99911   0.19342   0.80718   1.000
    N14     N    0.99905   0.80663   0.80720   1.000
    N15     N    0.99915   0.19347   0.19299   1.000
    N16     N    0.70842   0.00008   0.99936   1.000
    N17     N    0.29182   0.00007   0.99918   1.000
loop_
    _geom_bond_atom_site_label_1
    _geom_bond_atom_site_label_2
    _geom_bond_distance
    _geom_bond_site_symmetry_2
    _ccdc_geom_bond_type
    N12    C4        1.17407      .   S
    N15    C7        1.17408      .   S
    C5     N13       1.17406      .   S
    C6     N14       1.17407      .   S
    C11    N17       1.35296      .   S
    C11    H3        1.08638      .   S
    C11    C9        1.38471      .   S
    N17    C10       1.35315  1_545   S
    C10    H2        1.08636      .   S
    C10    C8        1.38472      .   S
    C9     N16       1.35294      .   S
    C9     H1        1.08640      .   S
    N16    C8        1.35395  1_545   S
    C8     H0        1.08639      .   S
