# CIF file generated by openbabel 2.4.90, see http://openbabel.sf.net
data_I
_chemical_name_common ''
_cell_length_a 6.754
_cell_length_b 6.935
_cell_length_c 6.966
_cell_angle_alpha 90
_cell_angle_beta 90.011
_cell_angle_gamma 90.005
_space_group_name_H-M_alt 'P 1'
_space_group_name_Hall 'P 1'
loop_
    _symmetry_equiv_pos_as_xyz
    x,y,z
loop_
    _atom_site_label
    _atom_site_type_symbol
    _atom_site_fract_x
    _atom_site_fract_y
    _atom_site_fract_z
    _atom_site_occupancy
    N0      N    0.50007   0.00003   0.99933   1.000
    N1      N    0.99849   0.74728   0.25311   1.000
    N2      N    0.99850   0.25274   0.74706   1.000
    N3      N    0.99846   0.74731   0.74708   1.000
    N4      N    0.99853   0.25277   0.25312   1.000
    Zr5     Zr   0.99707   0.50004   0.50013   1.000
    O6      O    0.99753   0.58534   0.41501   1.000
    O7      O    0.99753   0.41472   0.58521   1.000
    O8      O    0.99752   0.58535   0.58522   1.000
    O9      O    0.99754   0.41473   0.41502   1.000
    Zr10    Zr   0.00013   0.00002   0.00006   1.000
    O11     O    0.99959   0.08737   0.91270   1.000
    O12     O    0.99957   0.91267   0.91271   1.000
    O13     O    0.99960   0.08739   0.08744   1.000
    O14     O    0.99959   0.91265   0.08744   1.000
    O15     O    0.83865   0.00003   0.99979   1.000
    O16     O    0.16157   0.00003   0.99977   1.000
loop_
    _geom_bond_atom_site_label_1
    _geom_bond_atom_site_label_2
    _geom_bond_distance
    _geom_bond_site_symmetry_2
    _ccdc_geom_bond_type
    Zr5    O6        0.83756      .   S
    N1     O6        1.59160      .   S
    Zr5    O7        0.83752      .   S
    N2     O7        1.59154      .   S
    Zr5    O8        0.83750      .   S
    N3     O8        1.59151      .   S
    Zr5    O9        0.83759      .   S
    N4     O9        1.59166      .   S
    Zr10   O11       0.85869  1_454   S
    N2     O11       1.62682      .   S
    Zr10   O12       0.85862  1_444   S
    N3     O12       1.62671      .   S
    Zr10   O13       0.85888  1_455   S
    N4     O13       1.62714      .   S
    Zr10   O14       0.85883  1_445   S
    N1     O14       1.62705      .   S
    Zr10   O15       1.09062  1_454   S
    N0     O15       2.28676      .   S
    Zr10   O16       1.09042  1_554   S
    N0     O16       2.28621      .   S
