# CIF file generated by openbabel 2.4.90, see http://openbabel.sf.net
data_I
_chemical_name_common ''
_cell_length_a 12.465
_cell_length_b 15.968
_cell_length_c 15.972
_cell_angle_alpha 90.002
_cell_angle_beta 89.977
_cell_angle_gamma 90.007
_space_group_name_H-M_alt 'P 1'
_space_group_name_Hall 'P 1'
loop_
    _symmetry_equiv_pos_as_xyz
    x,y,z
loop_
    _atom_site_label
    _atom_site_type_symbol
    _atom_site_fract_x
    _atom_site_fract_y
    _atom_site_fract_z
    _atom_site_occupancy
    H0      H    0.76133   0.70967   0.71735   1.000
    H1      H    0.26131   0.29038   0.28257   1.000
    H2      H    0.01134   0.78261   0.20964   1.000
    H3      H    0.51127   0.21737   0.79033   1.000
    H4      H    0.48875   0.79041   0.21739   1.000
    H5      H    0.98869   0.20968   0.78259   1.000
    H6      H    0.23873   0.71738   0.70969   1.000
    H7      H    0.73871   0.28261   0.29038   1.000
    C8      C    0.73677   0.75994   0.76130   1.000
    C9      C    0.23676   0.24011   0.23862   1.000
    C10     C    0.98678   0.73865   0.25989   1.000
    C11     C    0.48675   0.26133   0.74008   1.000
    C12     C    0.51327   0.74014   0.26133   1.000
    C13     C    0.01325   0.25994   0.73864   1.000
    C14     C    0.26327   0.76135   0.75990   1.000
    C15     C    0.76328   0.23864   0.24013   1.000
loop_
    _geom_bond_atom_site_label_1
    _geom_bond_atom_site_label_2
    _geom_bond_distance
    _geom_bond_site_symmetry_2
    _ccdc_geom_bond_type
    H2     C10       1.10922  1_455   S
    H4     C12       1.10936      .   S
    C9     H1        1.10940      .   S
    C15    H7        1.10933      .   S
    H6     C14       1.10894      .   S
    H0     C8        1.10933      .   S
    C13    H5        1.10922  1_455   S
    C11    H3        1.10932      .   S
