# CIF file generated by openbabel 2.4.90, see http://openbabel.sf.net
data_I
_chemical_name_common ''
_cell_length_a 12.465
_cell_length_b 15.968
_cell_length_c 15.972
_cell_angle_alpha 90.002
_cell_angle_beta 89.977
_cell_angle_gamma 90.007
_space_group_name_H-M_alt 'P 1'
_space_group_name_Hall 'P 1'
loop_
    _symmetry_equiv_pos_as_xyz
    x,y,z
loop_
    _atom_site_label
    _atom_site_type_symbol
    _atom_site_fract_x
    _atom_site_fract_y
    _atom_site_fract_z
    _atom_site_occupancy
    H0      H    0.24520   0.59559   0.82333   1.000
    H1      H    0.24041   0.62419   0.92950   1.000
    H2      H    0.75348   0.64203   0.94502   1.000
    H3      H    0.76095   0.60093   0.84468   1.000
    H4      H    0.13087   0.72043   0.83876   1.000
    H5      H    0.23336   0.77515   0.89238   1.000
    H6      H    0.86663   0.73010   0.84721   1.000
    H7      H    0.75997   0.78814   0.89204   1.000
    H8      H    0.74524   0.40440   0.17672   1.000
    H9      H    0.74054   0.37579   0.07055   1.000
    H10     H    0.25357   0.35803   0.05490   1.000
    H11     H    0.26098   0.39912   0.15524   1.000
    H12     H    0.63093   0.27954   0.16134   1.000
    H13     H    0.73343   0.22484   0.10767   1.000
    H14     H    0.36666   0.26997   0.15266   1.000
    H15     H    0.26000   0.21190   0.10780   1.000
    H16     H    0.49525   0.67675   0.09560   1.000
    H17     H    0.49050   0.57055   0.12418   1.000
    H18     H    0.00350   0.55488   0.14200   1.000
    H19     H    0.01100   0.65524   0.10092   1.000
    H20     H    0.38090   0.66132   0.22043   1.000
    H21     H    0.48336   0.60765   0.27510   1.000
    H22     H    0.11661   0.65268   0.23003   1.000
    H23     H    0.00991   0.60788   0.28808   1.000
    H24     H    0.99516   0.32337   0.90436   1.000
    H25     H    0.99048   0.42956   0.87576   1.000
    H26     H    0.50350   0.44509   0.85790   1.000
    H27     H    0.51093   0.34472   0.89905   1.000
    H28     H    0.88091   0.33877   0.77955   1.000
    H29     H    0.98344   0.39242   0.72485   1.000
    H30     H    0.61663   0.34728   0.76990   1.000
    H31     H    0.51000   0.39211   0.71189   1.000
    H32     H    0.00481   0.90442   0.32329   1.000
    H33     H    0.00950   0.87581   0.42946   1.000
    H34     H    0.49647   0.85805   0.44506   1.000
    H35     H    0.48907   0.89914   0.34472   1.000
    H36     H    0.11910   0.77956   0.33868   1.000
    H37     H    0.01658   0.72486   0.39233   1.000
    H38     H    0.38337   0.76998   0.34729   1.000
    H39     H    0.49001   0.71193   0.39208   1.000
    H40     H    0.50479   0.09557   0.67669   1.000
    H41     H    0.50960   0.12415   0.57052   1.000
    H42     H    0.99657   0.14201   0.55492   1.000
    H43     H    0.98908   0.10092   0.65526   1.000
    H44     H    0.61915   0.22040   0.66126   1.000
    H45     H    0.51669   0.27511   0.60762   1.000
    H46     H    0.88343   0.23007   0.65273   1.000
    H47     H    0.99011   0.28813   0.60791   1.000
    H48     H    0.75487   0.82333   0.59557   1.000
    H49     H    0.75961   0.92953   0.62415   1.000
    H50     H    0.24657   0.94511   0.64205   1.000
    H51     H    0.23909   0.84474   0.60090   1.000
    H52     H    0.86916   0.83877   0.72036   1.000
    H53     H    0.76665   0.89243   0.77507   1.000
    H54     H    0.13340   0.84729   0.73011   1.000
    H55     H    0.24005   0.89212   0.78810   1.000
    H56     H    0.25479   0.17669   0.40435   1.000
    H57     H    0.25951   0.07050   0.37574   1.000
    H58     H    0.74650   0.05489   0.35803   1.000
    H59     H    0.73903   0.15526   0.39910   1.000
    H60     H    0.36913   0.16130   0.27950   1.000
    H61     H    0.26663   0.10764   0.22483   1.000
    H62     H    0.63341   0.15267   0.26999   1.000
    H63     H    0.74008   0.10786   0.21194   1.000
    C64     C    0.61567   0.76163   0.76198   1.000
    C65     C    0.26935   0.64500   0.86793   1.000
    C66     C    0.72949   0.65494   0.88013   1.000
    C67     C    0.21828   0.72842   0.84289   1.000
    C68     C    0.77886   0.73663   0.84840   1.000
    C69     C    0.11566   0.23843   0.23800   1.000
    C70     C    0.76942   0.35498   0.13212   1.000
    C71     C    0.22953   0.34511   0.11900   1.000
    C72     C    0.71834   0.27156   0.15718   1.000
    C73     C    0.27888   0.26343   0.15150   1.000
    C74     C    0.86568   0.73802   0.26157   1.000
    C75     C    0.51940   0.63214   0.14499   1.000
    C76     C    0.97953   0.61979   0.15492   1.000
    C77     C    0.46830   0.65717   0.22840   1.000
    C78     C    0.02884   0.65151   0.23650   1.000
    C79     C    0.36565   0.26200   0.73837   1.000
    C80     C    0.01933   0.36796   0.85496   1.000
    C81     C    0.47949   0.38018   0.84506   1.000
    C82     C    0.96832   0.34291   0.77156   1.000
    C83     C    0.52886   0.34846   0.76338   1.000
    C84     C    0.63437   0.73841   0.26201   1.000
    C85     C    0.98066   0.85500   0.36789   1.000
    C86     C    0.52050   0.84513   0.38017   1.000
    C87     C    0.03169   0.77158   0.34284   1.000
    C88     C    0.47114   0.76344   0.34845   1.000
    C89     C    0.13435   0.26161   0.73799   1.000
    C90     C    0.48066   0.14497   0.63208   1.000
    C91     C    0.02053   0.15493   0.61981   1.000
    C92     C    0.53175   0.22839   0.65712   1.000
    C93     C    0.97120   0.23661   0.65153   1.000
    C94     C    0.38437   0.76201   0.76162   1.000
    C95     C    0.73070   0.86795   0.64497   1.000
    C96     C    0.27055   0.88019   0.65495   1.000
    C97     C    0.78175   0.84291   0.72836   1.000
    C98     C    0.22117   0.84848   0.73660   1.000
    C99     C    0.88439   0.23798   0.23840   1.000
    C100    C    0.23063   0.13209   0.35494   1.000
    C101    C    0.77051   0.11980   0.34511   1.000
    C102    C    0.28172   0.15715   0.27150   1.000
    C103    C    0.72118   0.15150   0.26340   1.000
loop_
    _geom_bond_atom_site_label_1
    _geom_bond_atom_site_label_2
    _geom_bond_distance
    _geom_bond_site_symmetry_2
    _ccdc_geom_bond_type
    H10    C71       1.08642      .   S
    H9     C70       1.09878      .   S
    H16    C75       1.10482      .   S
    H19    C76       1.10356  1_455   S
    H13    C72       1.10318      .   S
    H15    C73       1.10436      .   S
    C71    C73       1.53279      .   S
    C71    H11       1.11023      .   S
    H17    C75       1.09878      .   S
    C70    C72       1.52963      .   S
    C70    H8        1.10487      .   S
    H18    C76       1.09828  1_455   S
    C75    C77       1.52959      .   S
    C73    H14       1.09919      .   S
    C76    C78       1.52730  1_655   S
    C72    H12       1.09898      .   S
    H63    C103      1.10298      .   S
    H20    C77       1.09897      .   S
    H61    C102      1.10278      .   S
    C77    H21       1.10322      .   S
    H22    C78       1.09908      .   S
    C78    H23       1.10433      .   S
    C103   H62       1.09926      .   S
    C103   C101      1.52917      .   S
    C102   H60       1.09904      .   S
    C102   C100      1.53006      .   S
    H32    C85       1.10477  1_455   S
    H36    C87       1.09898      .   S
    C87    C85       1.52943  1_455   S
    C87    H37       1.10309      .   S
    H35    C86       1.10370      .   S
    C101   H58       1.09834      .   S
    C101   H59       1.10367      .   S
    H38    C88       1.09919      .   S
    C88    C86       1.52856      .   S
    C88    H39       1.10356      .   S
    C100   H57       1.09882      .   S
    C100   H56       1.10489      .   S
    C85    H33       1.09863  1_655   S
    C86    H34       1.09830      .   S
    H42    C91       1.09824  1_655   S
    H41    C90       1.09870      .   S
    H48    C95       1.10488      .   S
    H51    C96       1.10436      .   S
    H45    C92       1.10312      .   S
    H47    C93       1.10345      .   S
    C91    C93       1.52838  1_455   S
    C91    H43       1.10355  1_455   S
    H49    C95       1.09877      .   S
    C90    C92       1.52963      .   S
    C90    H40       1.10486      .   S
    H50    C96       1.09839      .   S
    C95    C97       1.52957      .   S
    C93    H46       1.09918      .   S
    C96    C98       1.52820      .   S
    C92    H44       1.09899      .   S
    H31    C83       1.10344      .   S
    H52    C97       1.09899      .   S
    H29    C82       1.10314      .   S
    C97    H53       1.10323      .   S
    H54    C98       1.09914      .   S
    C98    H55       1.10350      .   S
    C83    H30       1.09919      .   S
    C83    C81       1.52862      .   S
    C82    H28       1.09898      .   S
    C82    C80       1.52949  1_655   S
    H0     C65       1.10482      .   S
    H4     C67       1.09898      .   S
    C67    C65       1.52965      .   S
    C67    H5        1.10314      .   S
    H3     C66       1.10368      .   S
    C81    H26       1.09813      .   S
    C81    H27       1.10369      .   S
    H6     C68       1.09918      .   S
    C68    C66       1.52855      .   S
    C68    H7        1.10354      .   S
    C80    H25       1.09864  1_455   S
    C80    H24       1.10465  1_455   S
    C65    H1        1.09878      .   S
    C66    H2        1.09836      .   S
