# CIF file generated by openbabel 2.4.90, see http://openbabel.sf.net
data_I
_chemical_name_common ''
_cell_length_a 12.465
_cell_length_b 15.968
_cell_length_c 15.972
_cell_angle_alpha 90.002
_cell_angle_beta 89.977
_cell_angle_gamma 90.007
_space_group_name_H-M_alt 'P 1'
_space_group_name_Hall 'P 1'
loop_
    _symmetry_equiv_pos_as_xyz
    x,y,z
loop_
    _atom_site_label
    _atom_site_type_symbol
    _atom_site_fract_x
    _atom_site_fract_y
    _atom_site_fract_z
    _atom_site_occupancy
    Zr0     Zr   0.62444   0.52168   0.00248   1.000
    Zr1     Zr   0.12443   0.47840   0.99748   1.000
    Zr2     Zr   0.87448   0.49748   0.02164   1.000
    Zr3     Zr   0.37440   0.50248   0.97836   1.000
    Zr4     Zr   0.62560   0.97841   0.50248   1.000
    Zr5     Zr   0.12557   0.02166   0.49740   1.000
    Zr6     Zr   0.37562   0.00246   0.52164   1.000
    Zr7     Zr   0.87559   0.99751   0.47830   1.000
    Zr8     Zr   0.74937   0.44199   0.92371   1.000
    Zr9     Zr   0.24929   0.55805   0.07632   1.000
    Zr10    Zr   0.99939   0.57636   0.94190   1.000
    Zr11    Zr   0.49929   0.42371   0.05798   1.000
    Zr12    Zr   0.50074   0.05804   0.42368   1.000
    Zr13    Zr   0.00064   0.94201   0.57628   1.000
    Zr14    Zr   0.25070   0.92371   0.44201   1.000
    Zr15    Zr   0.75070   0.07635   0.55802   1.000
    O16     O    0.68690   0.48184   0.96309   1.000
    O17     O    0.93694   0.53692   0.98177   1.000
    O18     O    0.43684   0.46309   0.01817   1.000
    O19     O    0.18686   0.51822   0.03690   1.000
    O20     O    0.56317   0.01822   0.46308   1.000
    O21     O    0.31316   0.96308   0.48182   1.000
    O22     O    0.81314   0.03693   0.51816   1.000
    O23     O    0.06311   0.98184   0.53684   1.000
    N24     N    0.49901   0.23935   0.76520   1.000
    N25     N    0.99906   0.76063   0.23477   1.000
    N26     N    0.50101   0.76527   0.23936   1.000
    N27     N    0.74905   0.73480   0.73933   1.000
    N28     N    0.00097   0.23481   0.76062   1.000
    N29     N    0.75100   0.26062   0.26526   1.000
    N30     N    0.25100   0.73936   0.73479   1.000
    N31     N    0.24903   0.26525   0.26060   1.000
    C32     C    0.25055   0.15380   0.63071   1.000
    O33     O    0.36221   0.15915   0.63182   1.000
    O34     O    0.20543   0.10775   0.58406   1.000
    O35     O    0.30085   0.20121   0.67785   1.000
    O36     O    0.29583   0.10216   0.59103   1.000
    O37     O    0.19977   0.20116   0.67756   1.000
    O38     O    0.13919   0.16360   0.62701   1.000
    C39     C    0.75054   0.84623   0.36924   1.000
    O40     O    0.80086   0.79881   0.32210   1.000
    O41     O    0.79581   0.89786   0.40890   1.000
    O42     O    0.70542   0.89228   0.41588   1.000
    O43     O    0.86219   0.84085   0.36814   1.000
    O44     O    0.69977   0.79886   0.32241   1.000
    O45     O    0.63917   0.83644   0.37294   1.000
    C46     C    0.00053   0.13073   0.34620   1.000
    O47     O    0.94977   0.17757   0.29885   1.000
    O48     O    0.04579   0.09107   0.39781   1.000
    O49     O    0.88917   0.12702   0.33642   1.000
    O50     O    0.05084   0.17788   0.29878   1.000
    O51     O    0.95541   0.08410   0.39223   1.000
    O52     O    0.11218   0.13184   0.34081   1.000
    C53     C    0.50058   0.86929   0.65367   1.000
    O54     O    0.45546   0.91590   0.60768   1.000
    O55     O    0.38921   0.87299   0.66353   1.000
    O56     O    0.44979   0.82244   0.70110   1.000
    O57     O    0.54585   0.90898   0.60195   1.000
    O58     O    0.61224   0.86819   0.65908   1.000
    O59     O    0.55088   0.82215   0.70113   1.000
    C60     C    0.49947   0.65381   0.86925   1.000
    O61     O    0.61083   0.66362   0.87294   1.000
    O62     O    0.45419   0.60217   0.90892   1.000
    O63     O    0.38780   0.65918   0.86817   1.000
    O64     O    0.44917   0.70123   0.82212   1.000
    O65     O    0.54458   0.60778   0.91589   1.000
    O66     O    0.55025   0.70118   0.82240   1.000
    C67     C    0.99952   0.34621   0.13073   1.000
    O68     O    0.88786   0.34083   0.13185   1.000
    O69     O    0.94920   0.29879   0.17788   1.000
    O70     O    0.95425   0.39782   0.09105   1.000
    O71     O    0.11088   0.33642   0.12688   1.000
    O72     O    0.04462   0.39227   0.08410   1.000
    O73     O    0.05027   0.29886   0.17757   1.000
    C74     C    0.24946   0.36928   0.84617   1.000
    O75     O    0.20419   0.40896   0.89781   1.000
    O76     O    0.29457   0.41591   0.89222   1.000
    O77     O    0.30024   0.32243   0.79881   1.000
    O78     O    0.36083   0.37298   0.83637   1.000
    O79     O    0.13780   0.36820   0.84080   1.000
    O80     O    0.19915   0.32215   0.79876   1.000
    C81     C    0.74951   0.63075   0.15377   1.000
    O82     O    0.86086   0.62703   0.16357   1.000
    O83     O    0.69919   0.67789   0.20120   1.000
    O84     O    0.79463   0.58410   0.10773   1.000
    O85     O    0.63785   0.63186   0.15915   1.000
    O86     O    0.80028   0.67759   0.20114   1.000
    O87     O    0.70423   0.59108   0.10215   1.000
loop_
    _geom_bond_atom_site_label_1
    _geom_bond_atom_site_label_2
    _geom_bond_distance
    _geom_bond_site_symmetry_2
    _ccdc_geom_bond_type
    Zr0    O16       1.18597  1_554   S
    Zr8    O16       1.18597      .   S
    Zr2    O17       1.18645  1_554   S
    Zr10   O17       1.18645      .   S
    Zr11   O18       1.18587      .   S
    Zr3    O18       1.18587  1_556   S
    Zr9    O19       1.18603      .   S
    Zr1    O19       1.18603  1_556   S
    Zr12   O20       1.18590      .   S
    Zr4    O20       1.18590  1_565   S
    Zr14   O21       1.18579      .   S
    Zr6    O21       1.18579  1_545   S
    Zr7    O22       1.18618  1_565   S
    Zr15   O22       1.18618      .   S
    Zr5    O23       1.18619  1_545   S
    Zr13   O23       1.18619      .   S
    C32    O33       1.39458      .   S
    N24    O33       3.01475      .   S
    C32    O34       1.18842      .   S
    Zr5    O34       2.19018      .   S
    C32    O35       1.23832      .   S
    N24    O35       2.90191      .   S
    C32    O36       1.18307      .   S
    Zr6    O36       2.17984      .   S
    C32    O37       1.23789      .   S
    N28    O37       2.86123      .   S
    C32    O38       1.39816      .   S
    N28    O38       2.96853      .   S
    C39    O40       1.23826      .   S
    N25    O40       2.90154      .   S
    C39    O41       1.18301      .   S
    Zr7    O41       2.17951      .   S
    C39    O42       1.18815      .   S
    Zr4    O42       2.18939      .   S
    C39    O43       1.39452      .   S
    N25    O43       3.01448      .   S
    C39    O44       1.23780      .   S
    N26    O44       2.86141      .   S
    C39    O45       1.39823      .   S
    N26    O45       2.96838      .   S
    C46    O47       1.23784  1_455   S
    N29    O47       2.86138      .   S
    C46    O48       1.18288      .   S
    Zr5    O48       2.17935      .   S
    C46    O49       1.39817  1_455   S
    N29    O49       2.96854      .   S
    C46    O50       1.23825      .   S
    N31    O50       2.90164      .   S
    C46    O51       1.18783  1_455   S
    Zr7    O51       2.18859  1_565   S
    C46    O52       1.39449      .   S
    N31    O52       3.01448      .   S
    C53    O54       1.18755      .   S
    Zr6    O54       2.18881  1_545   S
    C53    O55       1.39833      .   S
    N30    O55       2.96882      .   S
    C53    O56       1.23847      .   S
    N30    O56       2.86147      .   S
    C53    O57       1.18400      .   S
    Zr4    O57       2.17723      .   S
    C53    O58       1.39467      .   S
    N27    O58       3.01506      .   S
    C53    O59       1.23885      .   S
    N27    O59       2.90204      .   S
    C60    O61       1.39823      .   S
    N27    O61       2.96839      .   S
    C60    O62       1.18314      .   S
    Zr3    O62       2.17991      .   S
    C60    O63       1.39461      .   S
    N30    O63       3.01481      .   S
    C60    O64       1.23835      .   S
    N30    O64       2.90191      .   S
    C60    O65       1.18831      .   S
    Zr0    O65       2.18978  1_554   S
    C60    O66       1.23780      .   S
    N27    O66       2.86127      .   S
    C67    O68       1.39447      .   S
    N29    O68       3.01455      .   S
    C67    O69       1.23824      .   S
    N29    O69       2.90170      .   S
    C67    O70       1.18306      .   S
    Zr2    O70       2.17984      .   S
    C67    O71       1.39824  1_655   S
    N31    O71       2.97019      .   S
    C67    O72       1.18811  1_655   S
    Zr1    O72       2.18939  1_556   S
    C67    O73       1.23784  1_655   S
    N31    O73       2.86143      .   S
    C74    O75       1.18305      .   S
    Zr1    O75       2.17974      .   S
    C74    O76       1.18821      .   S
    Zr3    O76       2.18954      .   S
    C74    O77       1.23785      .   S
    N24    O77       2.86130      .   S
    C74    O78       1.39822      .   S
    N24    O78       2.96841      .   S
    C74    O79       1.39454      .   S
    N28    O79       3.01447      .   S
    C74    O80       1.23828      .   S
    N28    O80       2.90156      .   S
    C81    O82       1.39818      .   S
    N25    O82       2.96847      .   S
    C81    O83       1.23833      .   S
    N26    O83       2.90182      .   S
    C81    O84       1.18816      .   S
    Zr2    O84       2.18944      .   S
    C81    O85       1.39458      .   S
    N26    O85       3.01464      .   S
    C81    O86       1.23789      .   S
    N25    O86       2.86121      .   S
    C81    O87       1.18316      .   S
    Zr0    O87       2.18002      .   S
