# CIF file generated by openbabel 2.4.90, see http://openbabel.sf.net
data_I
_chemical_name_common ''
_cell_length_a 7.58
_cell_length_b 10.5225
_cell_length_c 13.26
_cell_angle_alpha 90.014
_cell_angle_beta 90.038
_cell_angle_gamma 90.102
_space_group_name_H-M_alt 'P 1'
_space_group_name_Hall 'P 1'
loop_
    _symmetry_equiv_pos_as_xyz
    x,y,z
loop_
    _atom_site_label
    _atom_site_type_symbol
    _atom_site_fract_x
    _atom_site_fract_y
    _atom_site_fract_z
    _atom_site_occupancy
    H0      H    0.22295   0.34419   0.68848   1.000
    H1      H    0.23537   0.17448   0.81804   1.000
    H2      H    0.05956   0.90141   0.61473   1.000
    H3      H    0.02457   0.05990   0.47882   1.000
    H4      H    0.27710   0.65699   0.18850   1.000
    H5      H    0.26650   0.82675   0.31822   1.000
    H6      H    0.44295   0.09903   0.11577   1.000
    H7      H    0.47681   0.94050   0.97891   1.000
    H8      H    0.77773   0.84437   0.81363   1.000
    H9      H    0.76530   0.67472   0.68393   1.000
    H10     H    0.94050   0.40190   0.88658   1.000
    H11     H    0.97577   0.56035   0.02309   1.000
    H12     H    0.72341   0.15654   0.31246   1.000
    H13     H    0.73419   0.32657   0.18292   1.000
    H14     H    0.55743   0.59826   0.38608   1.000
    H15     H    0.52364   0.43928   0.52234   1.000
    C16     C    0.12273   0.21711   0.57177   1.000
    C17     C    0.17789   0.24831   0.66997   1.000
    C18     C    0.18842   0.15319   0.74222   1.000
    C19     C    0.09177   0.00098   0.62891   1.000
    C20     C    0.07541   0.09007   0.55221   1.000
    C21     C    0.37777   0.78377   0.07184   1.000
    C22     C    0.32271   0.75272   0.17004   1.000
    C23     C    0.31325   0.84784   0.24236   1.000
    C24     C    0.41071   0.99972   0.12907   1.000
    C25     C    0.42609   0.91060   0.05233   1.000
    C26     C    0.87776   0.71740   0.93026   1.000
    C27     C    0.82271   0.74858   0.83208   1.000
    C28     C    0.81218   0.65348   0.75974   1.000
    C29     C    0.90871   0.50140   0.87294   1.000
    C30     C    0.92504   0.59046   0.94971   1.000
    C31     C    0.62263   0.28294   0.42918   1.000
    C32     C    0.67777   0.25214   0.33096   1.000
    C33     C    0.68734   0.34740   0.25879   1.000
    C34     C    0.58987   0.49891   0.37228   1.000
    C35     C    0.57439   0.40962   0.44888   1.000
    N36     N    0.14947   0.02992   0.72295   1.000
    N37     N    0.35310   0.97095   0.22311   1.000
    N38     N    0.85106   0.53029   0.77892   1.000
    N39     N    0.64752   0.47038   0.27822   1.000
loop_
    _geom_bond_atom_site_label_1
    _geom_bond_atom_site_label_2
    _geom_bond_distance
    _geom_bond_site_symmetry_2
    _ccdc_geom_bond_type
    H11    C30       1.09311  1_554   S
    C25    C21       1.40733      .   S
    C25    C24       1.38874      .   S
    C25    H7        1.09308  1_554   S
    C21    C22       1.40608      .   S
    H6     C24       1.08716  1_545   S
    C24    N37       1.35557      .   S
    C22    H4        1.09234      .   S
    C22    C23       1.38793      .   S
    H13    C33       1.08945      .   S
    N37    C23       1.35401      .   S
    C23    H5        1.08948      .   S
    C33    N39       1.35396      .   S
    C33    C32       1.38786      .   S
    N39    C34       1.35557      .   S
    H12    C32       1.09231      .   S
    C32    C31       1.40592      .   S
    C34    H14       1.08984      .   S
    C34    C35       1.38864      .   S
    C31    C35       1.40731      .   S
    C35    H15       1.09320      .   S
    H3     C20       1.09326      .   S
    C20    C16       1.40742      .   S
    C20    C19       1.38895      .   S
    C16    C17       1.40595      .   S
    H2     C19       1.09159  1_565   S
    C19    N36       1.35557      .   S
    C17    H0        1.09238      .   S
    C17    C18       1.38811      .   S
    H9     C28       1.08943      .   S
    N36    C18       1.35400      .   S
    C18    H1        1.08939      .   S
    C28    N38       1.35397      .   S
    C28    C27       1.38811      .   S
    N38    C29       1.35555      .   S
    H8     C27       1.09239      .   S
    C27    C26       1.40596      .   S
    C29    H10       1.08986      .   S
    C29    C30       1.38891      .   S
    C26    C30       1.40738      .   S
