# CIF file generated by openbabel 2.4.90, see http://openbabel.sf.net
data_I
_chemical_name_common ''
_cell_length_a 7.58
_cell_length_b 10.5225
_cell_length_c 13.26
_cell_angle_alpha 90.014
_cell_angle_beta 90.038
_cell_angle_gamma 90.102
_space_group_name_H-M_alt 'P 1'
_space_group_name_Hall 'P 1'
loop_
    _symmetry_equiv_pos_as_xyz
    x,y,z
loop_
    _atom_site_label
    _atom_site_type_symbol
    _atom_site_fract_x
    _atom_site_fract_y
    _atom_site_fract_z
    _atom_site_occupancy
    H0      H    0.03577   0.60240   0.36797   1.000
    H1      H    0.46178   0.39815   0.86818   1.000
    H2      H    0.96497   0.10275   0.13432   1.000
    H3      H    0.53822   0.89722   0.63280   1.000
    C4      C    0.10388   0.40080   0.33764   1.000
    C5      C    0.06660   0.50719   0.39461   1.000
    C6      C    0.11208   0.31401   0.49295   1.000
    C7      C    0.39526   0.59997   0.83781   1.000
    C8      C    0.43157   0.49346   0.89484   1.000
    C9      C    0.38753   0.68689   0.99302   1.000
    C10     C    0.89640   0.90086   0.16456   1.000
    C11     C    0.93381   0.00739   0.10773   1.000
    C12     C    0.88834   0.81422   0.00917   1.000
    C13     C    0.60499   0.09925   0.66311   1.000
    C14     C    0.56843   0.99260   0.60618   1.000
    C15     C    0.61278   0.18598   0.50791   1.000
    S16     S    0.06462   0.47192   0.52029   1.000
    S17     S    0.43371   0.52882   0.02047   1.000
    S18     S    0.93597   0.97227   0.98202   1.000
    S19     S    0.56626   0.02780   0.48051   1.000
    N20     N    0.13044   0.29285   0.39468   1.000
    N21     N    0.36953   0.70810   0.89473   1.000
    N22     N    0.86985   0.79290   0.10740   1.000
    N23     N    0.63089   0.20738   0.60616   1.000
loop_
    _geom_bond_atom_site_label_1
    _geom_bond_atom_site_label_2
    _geom_bond_distance
    _geom_bond_site_symmetry_2
    _ccdc_geom_bond_type
    C12    N22       1.32924      .   S
    C12    S18       1.73895  1_554   S
    S17    C8        1.70687  1_554   S
    S17    C9        1.73885  1_554   S
    N22    C10       1.37985      .   S
    C11    H2        1.08898      .   S
    C11    C10       1.38009  1_545   S
    C11    S18       1.70734  1_544   S
    C4     C5        1.38005      .   S
    C4     N20       1.37988      .   S
    H0     C5        1.08816      .   S
    C5     S16       1.70754      .   S
    N20    C6        1.32925      .   S
    S19    C15       1.73900      .   S
    S19    C14       1.70720  1_545   S
    C6     S16       1.73893      .   S
    C15    N23       1.32904      .   S
    N23    C13       1.37948      .   S
    C14    H3        1.08795      .   S
    C14    C13       1.37998  1_565   S
    C7     N21       1.37941      .   S
    C7     C8        1.38021      .   S
    H1     C8        1.08806      .   S
    N21    C9        1.32941      .   S
