# CIF file generated by openbabel 2.4.90, see http://openbabel.sf.net
data_I
_chemical_name_common ''
_cell_length_a 7.58
_cell_length_b 10.5225
_cell_length_c 13.26
_cell_angle_alpha 90.014
_cell_angle_beta 90.038
_cell_angle_gamma 90.102
_space_group_name_H-M_alt 'P 1'
_space_group_name_Hall 'P 1'
loop_
    _symmetry_equiv_pos_as_xyz
    x,y,z
loop_
    _atom_site_label
    _atom_site_type_symbol
    _atom_site_fract_x
    _atom_site_fract_y
    _atom_site_fract_z
    _atom_site_occupancy
    H0      H    0.03577   0.60240   0.36797   1.000
    H1      H    0.22295   0.34419   0.68848   1.000
    H2      H    0.23537   0.17448   0.81804   1.000
    H3      H    0.05956   0.90141   0.61473   1.000
    H4      H    0.02457   0.05990   0.47882   1.000
    H5      H    0.46178   0.39815   0.86818   1.000
    H6      H    0.27710   0.65699   0.18850   1.000
    H7      H    0.26650   0.82675   0.31822   1.000
    H8      H    0.44295   0.09903   0.11577   1.000
    H9      H    0.47681   0.94050   0.97891   1.000
    H10     H    0.96497   0.10275   0.13432   1.000
    H11     H    0.77773   0.84437   0.81363   1.000
    H12     H    0.76530   0.67472   0.68393   1.000
    H13     H    0.94050   0.40190   0.88658   1.000
    H14     H    0.97577   0.56035   0.02309   1.000
    H15     H    0.53822   0.89722   0.63280   1.000
    H16     H    0.72341   0.15654   0.31246   1.000
    H17     H    0.73419   0.32657   0.18292   1.000
    H18     H    0.55743   0.59826   0.38608   1.000
    H19     H    0.52364   0.43928   0.52234   1.000
    C20     C    0.10388   0.40080   0.33764   1.000
    C21     C    0.06660   0.50719   0.39461   1.000
    C22     C    0.11208   0.31401   0.49295   1.000
    C23     C    0.12273   0.21711   0.57177   1.000
    C24     C    0.17789   0.24831   0.66997   1.000
    C25     C    0.18842   0.15319   0.74222   1.000
    C26     C    0.09177   0.00098   0.62891   1.000
    C27     C    0.07541   0.09007   0.55221   1.000
    C28     C    0.39526   0.59997   0.83781   1.000
    C29     C    0.43157   0.49346   0.89484   1.000
    C30     C    0.38753   0.68689   0.99302   1.000
    C31     C    0.37777   0.78377   0.07184   1.000
    C32     C    0.32271   0.75272   0.17004   1.000
    C33     C    0.31325   0.84784   0.24236   1.000
    C34     C    0.41071   0.99972   0.12907   1.000
    C35     C    0.42609   0.91060   0.05233   1.000
    C36     C    0.89640   0.90086   0.16456   1.000
    C37     C    0.93381   0.00739   0.10773   1.000
    C38     C    0.88834   0.81422   0.00917   1.000
    C39     C    0.87776   0.71740   0.93026   1.000
    C40     C    0.82271   0.74858   0.83208   1.000
    C41     C    0.81218   0.65348   0.75974   1.000
    C42     C    0.90871   0.50140   0.87294   1.000
    C43     C    0.92504   0.59046   0.94971   1.000
    C44     C    0.60499   0.09925   0.66311   1.000
    C45     C    0.56843   0.99260   0.60618   1.000
    C46     C    0.61278   0.18598   0.50791   1.000
    C47     C    0.62263   0.28294   0.42918   1.000
    C48     C    0.67777   0.25214   0.33096   1.000
    C49     C    0.68734   0.34740   0.25879   1.000
    C50     C    0.58987   0.49891   0.37228   1.000
    C51     C    0.57439   0.40962   0.44888   1.000
    S52     S    0.06462   0.47192   0.52029   1.000
    S53     S    0.43371   0.52882   0.02047   1.000
    S54     S    0.93597   0.97227   0.98202   1.000
    S55     S    0.56626   0.02780   0.48051   1.000
    N56     N    0.13044   0.29285   0.39468   1.000
    N57     N    0.14947   0.02992   0.72295   1.000
    N58     N    0.36953   0.70810   0.89473   1.000
    N59     N    0.35310   0.97095   0.22311   1.000
    N60     N    0.86985   0.79290   0.10740   1.000
    N61     N    0.85106   0.53029   0.77892   1.000
    N62     N    0.63089   0.20738   0.60616   1.000
    N63     N    0.64752   0.47038   0.27822   1.000
loop_
    _geom_bond_atom_site_label_1
    _geom_bond_atom_site_label_2
    _geom_bond_distance
    _geom_bond_site_symmetry_2
    _ccdc_geom_bond_type
    C38    N60       1.32924      .   S
    C38    C39       1.46237  1_554   S
    C38    S54       1.73895  1_554   S
    S53    C29       1.70687  1_554   S
    S53    C30       1.73885  1_554   S
    H14    C43       1.09311  1_554   S
    C35    C31       1.40733      .   S
    C35    C34       1.38874      .   S
    C35    H9        1.09308  1_554   S
    C31    C32       1.40608      .   S
    C31    C30       1.46181  1_554   S
    N60    C36       1.37985      .   S
    C37    H10       1.08898      .   S
    C37    C36       1.38009  1_545   S
    C37    S54       1.70734  1_544   S
    H8     C34       1.08716  1_545   S
    C34    N59       1.35557      .   S
    C32    H6        1.09234      .   S
    C32    C33       1.38793      .   S
    H17    C49       1.08945      .   S
    N59    C33       1.35401      .   S
    C33    H7        1.08948      .   S
    C49    N63       1.35396      .   S
    C49    C48       1.38786      .   S
    N63    C50       1.35557      .   S
    H16    C48       1.09231      .   S
    C48    C47       1.40592      .   S
    C20    C21       1.38005      .   S
    C20    N56       1.37988      .   S
    H0     C21       1.08816      .   S
    C50    H18       1.08984      .   S
    C50    C51       1.38864      .   S
    C21    S52       1.70754      .   S
    N56    C22       1.32925      .   S
    C47    C51       1.40731      .   S
    C47    C46       1.46175      .   S
    C51    H19       1.09320      .   S
    H4     C27       1.09326      .   S
    S55    C46       1.73900      .   S
    S55    C45       1.70720  1_545   S
    C22    S52       1.73893      .   S
    C22    C23       1.46269      .   S
    C46    N62       1.32904      .   S
    C27    C23       1.40742      .   S
    C27    C26       1.38895      .   S
    C23    C24       1.40595      .   S
    N62    C44       1.37948      .   S
    C45    H15       1.08795      .   S
    C45    C44       1.37998  1_565   S
    H3     C26       1.09159  1_565   S
    C26    N57       1.35557      .   S
    C24    H1        1.09238      .   S
    C24    C25       1.38811      .   S
    H12    C41       1.08943      .   S
    N57    C25       1.35400      .   S
    C25    H2        1.08939      .   S
    C41    N61       1.35397      .   S
    C41    C40       1.38811      .   S
    N61    C42       1.35555      .   S
    H11    C40       1.09239      .   S
    C40    C39       1.40596      .   S
    C28    N58       1.37941      .   S
    C28    C29       1.38021      .   S
    H5     C29       1.08806      .   S
    C42    H13       1.08986      .   S
    C42    C43       1.38891      .   S
    N58    C30       1.32941      .   S
    C39    C43       1.40738      .   S
