# CIF file generated by openbabel 2.4.90, see http://openbabel.sf.net
data_I
_chemical_name_common ''
_cell_length_a 7.58
_cell_length_b 10.5225
_cell_length_c 13.26
_cell_angle_alpha 90.014
_cell_angle_beta 90.038
_cell_angle_gamma 90.102
_space_group_name_H-M_alt 'P 1'
_space_group_name_Hall 'P 1'
loop_
    _symmetry_equiv_pos_as_xyz
    x,y,z
loop_
    _atom_site_label
    _atom_site_type_symbol
    _atom_site_fract_x
    _atom_site_fract_y
    _atom_site_fract_z
    _atom_site_occupancy
    C0      C    0.10754   0.39593   0.22323   1.000
    C1      C    0.39236   0.60428   0.72342   1.000
    C2      C    0.89262   0.89589   0.27897   1.000
    C3      C    0.60799   0.10422   0.77741   1.000
    O4      O    0.13956   0.28976   0.18209   1.000
    O5      O    0.07469   0.49983   0.17799   1.000
    O6      O    0.36342   0.71040   0.68148   1.000
    O7      O    0.42296   0.49946   0.67904   1.000
    O8      O    0.86042   0.78967   0.32006   1.000
    O9      O    0.92552   0.99987   0.32425   1.000
    O10     O    0.63689   0.21092   0.81854   1.000
    O11     O    0.57754   0.99983   0.82254   1.000
loop_
    _geom_bond_atom_site_label_1
    _geom_bond_atom_site_label_2
    _geom_bond_distance
    _geom_bond_site_symmetry_2
    _ccdc_geom_bond_type
    O5     C0        1.27205      .   S
    O4     C0        1.26704      .   S
    C2     O8        1.26697      .   S
    C2     O9        1.27206      .   S
    O7     C1        1.27173      .   S
    O6     C1        1.26701      .   S
    C3     O10       1.26675      .   S
    C3     O11       1.27181  1_545   S
