# CIF file generated by openbabel 2.4.90, see http://openbabel.sf.net
data_I
_chemical_name_common ''
_cell_length_a 7.58
_cell_length_b 10.5225
_cell_length_c 13.26
_cell_angle_alpha 90.014
_cell_angle_beta 90.038
_cell_angle_gamma 90.102
_space_group_name_H-M_alt 'P 1'
_space_group_name_Hall 'P 1'
loop_
    _symmetry_equiv_pos_as_xyz
    x,y,z
loop_
    _atom_site_label
    _atom_site_type_symbol
    _atom_site_fract_x
    _atom_site_fract_y
    _atom_site_fract_z
    _atom_site_occupancy
    Zr0     Zr   0.21328   0.12172   0.30675   1.000
    Zr1     Zr   0.28880   0.87918   0.80599   1.000
    Zr2     Zr   0.78719   0.62141   0.19518   1.000
    Zr3     Zr   0.71159   0.37935   0.69488   1.000
    N4      N    0.41323   0.56923   0.91818   1.000
    O5      O    0.37120   0.68144   0.88427   1.000
    O6      O    0.32494   0.96261   0.20697   1.000
    N7      N    0.58693   0.06837   0.58278   1.000
    O8      O    0.62908   0.18087   0.61665   1.000
    O9      O    0.67559   0.46205   0.29446   1.000
    N10     N    0.08556   0.43153   0.41802   1.000
    O11     O    0.12871   0.31941   0.38437   1.000
    O12     O    0.17697   0.03825   0.70664   1.000
    N13     N    0.91489   0.93173   0.08420   1.000
    O14     O    0.87170   0.81945   0.11775   1.000
    O15     O    0.82350   0.53856   0.79499   1.000
    C16     C    0.60747   0.10499   0.80617   1.000
    O17     O    0.60209   0.09502   0.72884   1.000
    O18     O    0.52032   0.02224   0.81021   1.000
    O19     O    0.64086   0.20006   0.78144   1.000
    C20     C    0.39291   0.60471   0.69465   1.000
    O21     O    0.39822   0.59520   0.77202   1.000
    O22     O    0.48009   0.52206   0.69080   1.000
    O23     O    0.35951   0.69975   0.71919   1.000
    C24     C    0.89285   0.89514   0.30776   1.000
    O25     O    0.89878   0.90510   0.23037   1.000
    O26     O    0.85833   0.80034   0.28269   1.000
    O27     O    0.98113   0.97797   0.31163   1.000
    C28     C    0.10726   0.39517   0.19443   1.000
    O29     O    0.10145   0.40506   0.27183   1.000
    O30     O    0.14184   0.30046   0.21943   1.000
    O31     O    0.01910   0.47790   0.19051   1.000
loop_
    _geom_bond_atom_site_label_1
    _geom_bond_atom_site_label_2
    _geom_bond_distance
    _geom_bond_site_symmetry_2
    _ccdc_geom_bond_type
    N4     O5        1.30349      .   S
    Zr1    O5        2.40868      .   S
    N4     O6        5.67906  1_556   S
    Zr0    O6        2.29682  1_545   S
    N7     O8        1.30508      .   S
    Zr3    O8        2.41298      .   S
    N7     O9        5.67708      .   S
    Zr2    O9        2.29303      .   S
    N10    O11       1.30361      .   S
    Zr0    O11       2.40873      .   S
    N10    O12       5.68032      .   S
    Zr1    O12       2.29356  1_565   S
    N13    O14       1.30390      .   S
    Zr2    O14       2.40917      .   S
    N13    O15       5.68167  1_554   S
    Zr3    O15       2.29801      .   S
    C16    O17       1.03140      .   S
    N7     O17       1.96021      .   S
    C16    O18       1.09332      .   S
    Zr1    O18       2.31078  1_565   S
    C16    O19       1.08247      .   S
    Zr3    O19       2.27207      .   S
    C20    O21       1.03165      .   S
    N4     O21       1.96050      .   S
    C20    O22       1.09443      .   S
    Zr3    O22       2.31223      .   S
    C20    O23       1.08209      .   S
    Zr1    O23       2.27593      .   S
    C24    O25       1.03252      .   S
    N13    O25       1.96231      .   S
    C24    O26       1.08299      .   S
    Zr2    O26       2.27518      .   S
    C24    O27       1.09897      .   S
    Zr0    O27       2.31937  1_445   S
    C28    O29       1.03250      .   S
    N10    O29       1.96215      .   S
    C28    O30       1.08298      .   S
    Zr0    O30       2.27492      .   S
    C28    O31       1.09957      .   S
    Zr2    O31       2.32038  1_655   S
