# CIF file generated by openbabel 2.4.90, see http://openbabel.sf.net
data_I
_chemical_name_common ''
_cell_length_a 6.315
_cell_length_b 8.7495
_cell_length_c 9.775
_cell_angle_alpha 64.711
_cell_angle_beta 84.48
_cell_angle_gamma 83.627
_space_group_name_H-M_alt 'P 1'
_space_group_name_Hall 'P 1'
loop_
    _symmetry_equiv_pos_as_xyz
    x,y,z
loop_
    _atom_site_label
    _atom_site_type_symbol
    _atom_site_fract_x
    _atom_site_fract_y
    _atom_site_fract_z
    _atom_site_occupancy
    Zr0     Zr   0.71954   0.97501   0.19902   1.000
    Zr1     Zr   0.78633   0.36134   0.43386   1.000
    Zr2     Zr   0.28054   0.02508   0.80109   1.000
    Zr3     Zr   0.21363   0.63859   0.56625   1.000
    N4      N    0.73580   0.27983   0.81157   1.000
    O5      O    0.91203   0.38952   0.71950   1.000
    O6      O    0.55296   0.39200   0.71842   1.000
    N7      N    0.25398   0.13385   0.35678   1.000
    O8      O    0.24767   0.96616   0.39795   1.000
    O9      O    0.05415   0.09706   0.30460   1.000
    O10     O    0.45328   0.20559   0.37010   1.000
    O11     O    0.25686   0.13196   0.49848   1.000
    N12     N    0.74596   0.86602   0.64336   1.000
    O13     O    0.74310   0.86795   0.50165   1.000
    O14     O    0.54667   0.79429   0.63004   1.000
    O15     O    0.75230   0.03370   0.60219   1.000
    O16     O    0.94585   0.90295   0.69549   1.000
    N17     N    0.26421   0.72015   0.18856   1.000
    O18     O    0.08796   0.61044   0.28060   1.000
    O19     O    0.44703   0.60788   0.28170   1.000
    O20     O    0.89787   0.79509   0.61511   1.000
    O21     O    0.59462   0.92027   0.69137   1.000
    O22     O    0.56782   0.21691   0.80827   1.000
    O23     O    0.92635   0.21463   0.80930   1.000
    O24     O    0.75067   0.32145   0.68586   1.000
    O25     O    0.72970   0.18163   0.93938   1.000
    O26     O    0.24932   0.67847   0.31425   1.000
    O27     O    0.27034   0.81841   0.06076   1.000
    O28     O    0.07368   0.78537   0.19080   1.000
    O29     O    0.43221   0.78309   0.19188   1.000
    O30     O    0.10208   0.20483   0.38499   1.000
    O31     O    0.40537   0.07963   0.30877   1.000
loop_
    _geom_bond_atom_site_label_1
    _geom_bond_atom_site_label_2
    _geom_bond_distance
    _geom_bond_site_symmetry_2
    _ccdc_geom_bond_type
    N4     O5        1.50867      .   S
    Zr3    O5        2.86427  1_455   S
    N4     O6        1.52075      .   S
    Zr3    O6        2.88171      .   S
    N7     O8        1.34968  1_545   S
    Zr3    O8        2.64716      .   S
    N7     O9        1.52010      .   S
    Zr0    O9        2.92098  1_665   S
    N7     O10       1.50719      .   S
    Zr1    O10       2.87801      .   S
    N7     O11       1.38004      .   S
    Zr2    O11       2.70872      .   S
    N12    O13       1.37991      .   S
    Zr0    O13       2.70861      .   S
    N12    O14       1.50714      .   S
    Zr3    O14       2.87783      .   S
    N12    O15       1.34963  1_565   S
    Zr1    O15       2.64765      .   S
    N12    O16       1.52063      .   S
    Zr2    O16       2.92200  1_445   S
    N17    O18       1.50876      .   S
    Zr1    O18       2.86458  1_655   S
    N17    O19       1.52084      .   S
    Zr1    O19       2.88138      .   S
    N12    O20       1.15971      .   S
    Zr3    O20       2.41841  1_455   S
    N12    O21       1.16720      .   S
    Zr2    O21       2.43975  1_545   S
    N4     O22       1.25734      .   S
    Zr2    O22       2.62949      .   S
    N4     O23       1.27562      .   S
    Zr2    O23       2.64863  1_455   S
    N4     O24       1.11998      .   S
    Zr1    O24       2.32742      .   S
    N4     O25       1.17540      .   S
    Zr0    O25       2.40588  1_564   S
    Zr3    O26       2.32734      .   S
    N17    O26       1.11978      .   S
    Zr2    O27       2.40618  1_546   S
    N17    O27       1.17552      .   S
    N17    O28       1.27557      .   S
    Zr0    O28       2.64883  1_655   S
    N17    O29       1.25758      .   S
    Zr0    O29       2.63018      .   S
    Zr1    O30       2.41837  1_655   S
    N7     O30       1.15983      .   S
    Zr0    O31       2.43960  1_565   S
    N7     O31       1.16719      .   S
