# CIF file generated by openbabel 2.4.90, see http://openbabel.sf.net
data_I
_chemical_name_common ''
_cell_length_a 14.039
_cell_length_b 14.068
_cell_length_c 14.791
_cell_angle_alpha 90.014
_cell_angle_beta 89.981
_cell_angle_gamma 89.986
_space_group_name_H-M_alt 'P 1'
_space_group_name_Hall 'P 1'
loop_
    _symmetry_equiv_pos_as_xyz
    x,y,z
loop_
    _atom_site_label
    _atom_site_type_symbol
    _atom_site_fract_x
    _atom_site_fract_y
    _atom_site_fract_z
    _atom_site_occupancy
    Cu0     Cu   0.00003   0.99996   0.20000   1.000
    H1      H    0.79648   0.47814   0.12300   1.000
    H2      H    0.68638   0.41661   0.10916   1.000
    H3      H    0.74279   0.46643   0.01332   1.000
    H4      H    0.70325   0.02169   0.12284   1.000
    H5      H    0.81338   0.08326   0.10923   1.000
    H6      H    0.75724   0.03349   0.01320   1.000
    H7      H    0.02293   0.79543   0.62418   1.000
    H8      H    0.08400   0.68534   0.60938   1.000
    H9      H    0.03427   0.74265   0.51401   1.000
    H10     H    0.47719   0.70457   0.62416   1.000
    H11     H    0.41606   0.81465   0.60955   1.000
    H12     H    0.46582   0.75746   0.51409   1.000
    H13     H    0.20333   0.97804   0.37684   1.000
    H14     H    0.31346   0.91654   0.39080   1.000
    H15     H    0.25694   0.96642   0.48662   1.000
    H16     H    0.29651   0.52188   0.37668   1.000
    H17     H    0.18641   0.58340   0.39070   1.000
    H18     H    0.24296   0.53356   0.48651   1.000
    H19     H    0.97708   0.29588   0.87651   1.000
    H20     H    0.91589   0.18576   0.89049   1.000
    H21     H    0.96537   0.24244   0.98632   1.000
    H22     H    0.52283   0.20441   0.87618   1.000
    H23     H    0.58403   0.31449   0.89043   1.000
    H24     H    0.53439   0.25763   0.98611   1.000
    H25     H    0.20319   0.52174   0.87705   1.000
    H26     H    0.31321   0.58341   0.89087   1.000
    H27     H    0.25692   0.53353   0.98674   1.000
    H28     H    0.29669   0.97844   0.87710   1.000
    H29     H    0.18661   0.91680   0.89082   1.000
    H30     H    0.24279   0.96666   0.98676   1.000
    H31     H    0.97712   0.20443   0.37602   1.000
    H32     H    0.91599   0.31455   0.39040   1.000
    H33     H    0.96554   0.25754   0.48602   1.000
    H34     H    0.52274   0.29550   0.37590   1.000
    H35     H    0.58390   0.18540   0.39024   1.000
    H36     H    0.53433   0.24241   0.48589   1.000
    H37     H    0.79665   0.02198   0.62322   1.000
    H38     H    0.68654   0.08349   0.60917   1.000
    H39     H    0.74308   0.03355   0.51342   1.000
    H40     H    0.70345   0.47810   0.62338   1.000
    H41     H    0.81355   0.41657   0.60925   1.000
    H42     H    0.75697   0.46643   0.51354   1.000
    H43     H    0.02300   0.70428   0.12359   1.000
    H44     H    0.08410   0.81443   0.10938   1.000
    H45     H    0.03455   0.75755   0.01369   1.000
    H46     H    0.47699   0.79575   0.12371   1.000
    H47     H    0.41581   0.68566   0.10941   1.000
    H48     H    0.46550   0.74253   0.01376   1.000
    C49     C    0.67641   0.56712   0.10045   1.000
    C50     C    0.72914   0.47707   0.08574   1.000
    C51     C    0.88020   0.54234   0.34331   1.000
    C52     C    0.82344   0.93278   0.10040   1.000
    C53     C    0.77068   0.02281   0.08565   1.000
    C54     C    0.61980   0.95760   0.34326   1.000
    C55     C    0.93318   0.67624   0.60085   1.000
    C56     C    0.02362   0.72854   0.58634   1.000
    C57     C    0.95807   0.88006   0.84318   1.000
    C58     C    0.56690   0.82383   0.60087   1.000
    C59     C    0.47648   0.77151   0.58643   1.000
    C60     C    0.54194   0.61991   0.84329   1.000
    C61     C    0.32340   0.06702   0.39943   1.000
    C62     C    0.27063   0.97701   0.41420   1.000
    C63     C    0.11964   0.04240   0.15682   1.000
    C64     C    0.17647   0.43292   0.39942   1.000
    C65     C    0.22923   0.52293   0.41411   1.000
    C66     C    0.38025   0.45766   0.15675   1.000
    C67     C    0.06671   0.17645   0.89947   1.000
    C68     C    0.97624   0.22875   0.91393   1.000
    C69     C    0.04208   0.38008   0.65678   1.000
    C70     C    0.43319   0.32378   0.89927   1.000
    C71     C    0.52364   0.27147   0.91375   1.000
    C72     C    0.45794   0.11989   0.65671   1.000
    C73     C    0.32341   0.43292   0.89959   1.000
    C74     C    0.27055   0.52289   0.91432   1.000
    C75     C    0.11979   0.45762   0.65673   1.000
    C76     C    0.17648   0.06731   0.89960   1.000
    C77     C    0.22927   0.97730   0.91433   1.000
    C78     C    0.38019   0.04238   0.65675   1.000
    C79     C    0.06678   0.32373   0.39918   1.000
    C80     C    0.97634   0.27144   0.41367   1.000
    C81     C    0.04183   0.11990   0.15691   1.000
    C82     C    0.43309   0.17619   0.39915   1.000
    C83     C    0.52353   0.22849   0.41350   1.000
    C84     C    0.45801   0.38013   0.15673   1.000
    C85     C    0.67659   0.93300   0.60061   1.000
    C86     C    0.72936   0.02300   0.58584   1.000
    C87     C    0.88029   0.95759   0.84322   1.000
    C88     C    0.82349   0.56705   0.60061   1.000
    C89     C    0.77073   0.47705   0.58594   1.000
    C90     C    0.61971   0.54239   0.84330   1.000
    C91     C    0.93325   0.82360   0.10057   1.000
    C92     C    0.02375   0.77135   0.08606   1.000
    C93     C    0.95789   0.61989   0.34328   1.000
    C94     C    0.56664   0.67637   0.10064   1.000
    C95     C    0.47620   0.72869   0.08610   1.000
    C96     C    0.54204   0.88011   0.34330   1.000
    N97     N    0.71215   0.64289   0.14315   1.000
    N98     N    0.78773   0.85697   0.14306   1.000
    N99     N    0.85713   0.71204   0.64337   1.000
    N100    N    0.64286   0.78803   0.64347   1.000
    N101    N    0.28772   0.14290   0.35678   1.000
    N102    N    0.21222   0.35703   0.35679   1.000
    N103    N    0.14267   0.21218   0.85670   1.000
    N104    N    0.35724   0.28800   0.85668   1.000
    N105    N    0.28779   0.35706   0.85684   1.000
    N106    N    0.21213   0.14313   0.85687   1.000
    N107    N    0.14285   0.28793   0.35668   1.000
    N108    N    0.35713   0.21197   0.35653   1.000
    N109    N    0.71228   0.85710   0.64324   1.000
    N110    N    0.78775   0.64294   0.64326   1.000
    N111    N    0.85736   0.78775   0.14322   1.000
    N112    N    0.64258   0.71217   0.14322   1.000
    N113    N    0.58569   0.58593   0.07252   1.000
    N114    N    0.91415   0.91400   0.07242   1.000
    N115    N    0.91418   0.58581   0.57265   1.000
    N116    N    0.58591   0.91425   0.57269   1.000
    N117    N    0.41406   0.08579   0.42741   1.000
    N118    N    0.08579   0.41415   0.42740   1.000
    N119    N    0.08575   0.08606   0.92759   1.000
    N120    N    0.41412   0.41421   0.92749   1.000
    O121    O    0.88273   0.47824   0.40181   1.000
    O122    O    0.81664   0.55001   0.28120   1.000
    O123    O    0.61724   0.02175   0.40170   1.000
    O124    O    0.68339   0.94992   0.28109   1.000
    O125    O    0.02255   0.88271   0.90137   1.000
    O126    O    0.95012   0.81653   0.78109   1.000
    O127    O    0.47756   0.61722   0.90166   1.000
    O128    O    0.54974   0.68343   0.78126   1.000
    O129    O    0.11713   0.97828   0.09831   1.000
    O130    O    0.18334   0.05012   0.21886   1.000
    O131    O    0.38278   0.52180   0.09829   1.000
    O132    O    0.31663   0.44992   0.21884   1.000
    O133    O    0.97779   0.38272   0.59835   1.000
    O134    O    0.04985   0.31656   0.71881   1.000
    O135    O    0.52225   0.11732   0.59827   1.000
    O136    O    0.45011   0.18338   0.71879   1.000
    O137    O    0.11724   0.52172   0.59823   1.000
    O138    O    0.18335   0.44996   0.71884   1.000
    O139    O    0.38277   0.97824   0.59824   1.000
    O140    O    0.31661   0.05004   0.71888   1.000
    O141    O    0.97730   0.11724   0.09877   1.000
    O142    O    0.04986   0.18347   0.21896   1.000
    O143    O    0.52234   0.38283   0.09832   1.000
    O144    O    0.45022   0.31658   0.21873   1.000
    O145    O    0.88280   0.02170   0.90173   1.000
    O146    O    0.81662   0.94987   0.78115   1.000
    O147    O    0.61719   0.47831   0.90183   1.000
    O148    O    0.68332   0.55007   0.78122   1.000
    O149    O    0.02218   0.61725   0.40171   1.000
    O150    O    0.95013   0.68340   0.28123   1.000
    O151    O    0.47773   0.88266   0.40171   1.000
    O152    O    0.54991   0.81660   0.28118   1.000
loop_
    _geom_bond_atom_site_label_1
    _geom_bond_atom_site_label_2
    _geom_bond_distance
    _geom_bond_site_symmetry_2
    _ccdc_geom_bond_type
    H6     C53       1.09851      .   S
    H3     C50       1.09831      .   S
    H45    C92       1.09829      .   S
    H48    C95       1.09796      .   S
    N114   C52       1.36469      .   S
    N114   C91       1.36484      .   S
    N113   C49       1.36482      .   S
    N113   C94       1.36485      .   S
    C53    C52       1.48319  1_545   S
    C53    H5        1.09736      .   S
    C53    H4        1.09490      .   S
    C50    C49       1.48303      .   S
    C50    H2        1.09733      .   S
    C50    H1        1.09456      .   S
    C92    C91       1.48320  1_455   S
    C92    H44       1.09738      .   S
    C92    H43       1.09491      .   S
    C95    C94       1.48314      .   S
    C95    H47       1.09746      .   S
    C95    H46       1.09503      .   S
    O131   C66       1.25036      .   S
    O129   C63       1.25034  1_565   S
    O143   C84       1.25028      .   S
    O141   C81       1.24989  1_655   S
    C52    N98       1.33689      .   S
    C49    N97       1.33685      .   S
    C91    N111      1.33698      .   S
    C94    N112      1.33697      .   S
    N98    N111      1.37972      .   S
    N97    N112      1.37965      .   S
    C84    C66       1.54294      .   S
    C84    O144      1.28558      .   S
    C66    O132      1.28546      .   S
    C63    C81       1.54325      .   S
    C63    O130      1.28612      .   S
    C63    Cu0       1.89323  1_545   S
    C81    O142      1.28623      .   S
    C81    Cu0       1.89692  1_545   S
    O124   C54       1.28589      .   S
    O152   C96       1.28614      .   S
    O122   C51       1.28539      .   S
    O150   C93       1.28563      .   S
    C54    C96       1.54303      .   S
    C54    O123      1.24994  1_565   S
    C93    C51       1.54290      .   S
    C93    O149      1.25032  1_655   S
    C96    O151      1.24992      .   S
    C51    O121      1.25044      .   S
    N108   N101      1.37630      .   S
    N108   C82       1.33729      .   S
    N107   N102      1.37625      .   S
    N107   C79       1.33727      .   S
    N101   C61       1.33749      .   S
    N102   C64       1.33735      .   S
    H34    C83       1.09470      .   S
    H31    C80       1.09479      .   S
    H16    C65       1.09487      .   S
    H13    C62       1.09482      .   S
    H35    C83       1.09717      .   S
    H32    C80       1.09735      .   S
    H17    C65       1.09773      .   S
    H14    C62       1.09746      .   S
    C82    C83       1.48293      .   S
    C82    N117      1.36510      .   S
    C79    C80       1.48316  1_455   S
    C79    N118      1.36511      .   S
    C64    C65       1.48303      .   S
    C64    N118      1.36440      .   S
    C61    C62       1.48331  1_545   S
    C61    N117      1.36432      .   S
    C83    H36       1.09899      .   S
    C80    H33       1.09836      .   S
    C65    H18       1.09837      .   S
    C62    H15       1.09842      .   S
    H39    C86       1.09838      .   S
    H42    C89       1.09840      .   S
    H9     C56       1.09834      .   S
    H12    C59       1.09832      .   S
    N115   C88       1.36438      .   S
    N115   C55       1.36513      .   S
    N116   C85       1.36433      .   S
    N116   C58       1.36512      .   S
    C86    C85       1.48331  1_545   S
    C86    H38       1.09732      .   S
    C86    H37       1.09485      .   S
    C89    C88       1.48302      .   S
    C89    H41       1.09735      .   S
    C89    H40       1.09481      .   S
    C56    C55       1.48317  1_455   S
    C56    H8        1.09734      .   S
    C56    H7        1.09487      .   S
    C59    C58       1.48304      .   S
    C59    H11       1.09734      .   S
    C59    H10       1.09485      .   S
    O137   C75       1.25046      .   S
    O139   C78       1.25062  1_565   S
    O135   C72       1.25016      .   S
    O133   C69       1.25038  1_655   S
    C85    N109      1.33753      .   S
    C88    N110      1.33738      .   S
    C55    N99       1.33730      .   S
    C58    N100      1.33720      .   S
    N109   N100      1.37632      .   S
    N110   N99       1.37625      .   S
    C72    C78       1.54302      .   S
    C72    O136      1.28554      .   S
    C75    C69       1.54292      .   S
    C75    O138      1.28538      .   S
    C78    O140      1.28534      .   S
    C69    O134      1.28557      .   S
    O126   C57       1.28623      .   S
    O146   C87       1.28615      .   S
    O148   C90       1.28528      .   S
    O128   C60       1.28561      .   S
    C57    C87       1.54317      .   S
    C57    O125      1.24985  1_655   S
    C87    O145      1.25025  1_565   S
    C60    C90       1.54294      .   S
    C60    O127      1.25022      .   S
    C90    O147      1.25058      .   S
    N104   N105      1.37625      .   S
    N104   C70       1.33709      .   S
    N103   N106      1.37633      .   S
    N103   C67       1.33798      .   S
    N105   C73       1.33747      .   S
    N106   C76       1.33709      .   S
    H22    C71       1.09482      .   S
    H19    C68       1.09481      .   S
    H25    C74       1.09488      .   S
    H28    C77       1.09492      .   S
    H23    C71       1.09735      .   S
    H20    C68       1.09737      .   S
    H29    C77       1.09733      .   S
    H26    C74       1.09735      .   S
    C70    C71       1.48311      .   S
    C70    N120      1.36519      .   S
    C67    C68       1.48314  1_455   S
    C67    N119      1.36441      .   S
    C73    C74       1.48304      .   S
    C73    N120      1.36447      .   S
    C76    C77       1.48324  1_545   S
    C76    N119      1.36498      .   S
    C71    H24       1.09834      .   S
    C68    H21       1.09843      .   S
    C74    H27       1.09825      .   S
    C77    H30       1.09833      .   S
    O129   Cu0       2.24856      .   S
    O141   Cu0       2.25095  1_645   S
