# CIF file generated by openbabel 2.4.90, see http://openbabel.sf.net
data_I
_chemical_name_common ''
_cell_length_a 14.039
_cell_length_b 14.068
_cell_length_c 14.791
_cell_angle_alpha 90.014
_cell_angle_beta 89.981
_cell_angle_gamma 89.986
_space_group_name_H-M_alt 'P 1'
_space_group_name_Hall 'P 1'
loop_
    _symmetry_equiv_pos_as_xyz
    x,y,z
loop_
    _atom_site_label
    _atom_site_type_symbol
    _atom_site_fract_x
    _atom_site_fract_y
    _atom_site_fract_z
    _atom_site_occupancy
    Zr0     Zr   0.49999   0.50000   0.00000   1.000
    Zr1     Zr   0.99999   0.49998   0.50002   1.000
    Zr2     Zr   0.49999   0.00003   0.50004   1.000
    Zr3     Zr   0.83403   0.66604   0.20736   1.000
    Zr4     Zr   0.66594   0.83390   0.20736   1.000
    Zr5     Zr   0.83404   0.83386   0.70744   1.000
    Zr6     Zr   0.66592   0.66617   0.70745   1.000
    Zr7     Zr   0.16594   0.16613   0.29259   1.000
    Zr8     Zr   0.33405   0.33382   0.29258   1.000
    Zr9     Zr   0.16598   0.33388   0.79265   1.000
    Zr10    Zr   0.33400   0.16616   0.79260   1.000
    C11     C    0.58092   0.91886   0.34328   1.000
    C12     C    0.91904   0.58111   0.34330   1.000
    C13     C    0.41907   0.08113   0.65673   1.000
    C14     C    0.41913   0.41890   0.15674   1.000
    C15     C    0.58082   0.58115   0.84330   1.000
    C16     C    0.91918   0.91883   0.84320   1.000
    C17     C    0.08094   0.41885   0.65676   1.000
    C18     C    0.38648   0.11336   0.40564   1.000
    O19     O    0.42175   0.07814   0.43468   1.000
    O20     O    0.36604   0.19313   0.36510   1.000
    O21     O    0.30666   0.13394   0.36516   1.000
    C22     C    0.35988   0.47646   0.15796   1.000
    O23     O    0.37979   0.45737   0.15735   1.000
    O24     O    0.34261   0.43416   0.20684   1.000
    O25     O    0.40063   0.49368   0.10355   1.000
    C26     C    0.08152   0.08190   0.15810   1.000
    C27     C    0.11336   0.11363   0.90588   1.000
    O28     O    0.13384   0.19333   0.86528   1.000
    O29     O    0.19321   0.13413   0.86531   1.000
    C30     C    0.11340   0.38658   0.40566   1.000
    O31     O    0.19327   0.36600   0.36517   1.000
    O32     O    0.07815   0.42182   0.43469   1.000
    O33     O    0.13390   0.30680   0.36515   1.000
    C34     C    0.52308   0.64019   0.84207   1.000
    O35     O    0.50593   0.59940   0.89645   1.000
    O36     O    0.54223   0.62036   0.84268   1.000
    O37     O    0.56546   0.65750   0.79321   1.000
    C38     C    0.61352   0.88665   0.59437   1.000
    O39     O    0.63395   0.80687   0.63491   1.000
    O40     O    0.57823   0.92189   0.56537   1.000
    O41     O    0.69334   0.86606   0.63485   1.000
    C42     C    0.64014   0.97642   0.34202   1.000
    O43     O    0.62025   0.95733   0.34264   1.000
    O44     O    0.59938   0.99366   0.39644   1.000
    O45     O    0.65740   0.93416   0.29312   1.000
    C46     C    0.88656   0.61340   0.59437   1.000
    O47     O    0.92182   0.57815   0.56535   1.000
    O48     O    0.80670   0.63398   0.63486   1.000
    O49     O    0.86607   0.69317   0.63489   1.000
    C50     C    0.88661   0.88646   0.09410   1.000
    O51     O    0.86615   0.80668   0.13470   1.000
    O52     O    0.80672   0.86595   0.13466   1.000
    C53     C    0.61329   0.61349   0.09417   1.000
    O54     O    0.69319   0.63398   0.13471   1.000
    O55     O    0.63377   0.69326   0.13473   1.000
    O56     O    0.57807   0.57823   0.06521   1.000
    C57     C    0.38650   0.38658   0.90579   1.000
    O58     O    0.30669   0.36603   0.86527   1.000
    O59     O    0.42178   0.42184   0.93477   1.000
    O60     O    0.36606   0.30683   0.86522   1.000
    C61     C    0.52323   0.85979   0.34206   1.000
    O62     O    0.54235   0.87964   0.34268   1.000
    O63     O    0.50604   0.90057   0.39647   1.000
    O64     O    0.56557   0.84252   0.29317   1.000
    C65     C    0.47677   0.14019   0.65792   1.000
    O66     O    0.45764   0.12035   0.65732   1.000
    O67     O    0.43441   0.15748   0.70681   1.000
    O68     O    0.49394   0.09943   0.60354   1.000
    C69     C    0.85986   0.52353   0.34211   1.000
    O70     O    0.87974   0.54263   0.34270   1.000
    O71     O    0.90061   0.50632   0.39651   1.000
    O72     O    0.84260   0.56578   0.29319   1.000
    C73     C    0.14013   0.47643   0.65793   1.000
    O74     O    0.12025   0.45733   0.65734   1.000
    O75     O    0.15739   0.43418   0.70684   1.000
    O76     O    0.09937   0.49364   0.60353   1.000
    C77     C    0.35986   0.02355   0.65796   1.000
    O78     O    0.37974   0.04266   0.65735   1.000
    O79     O    0.40062   0.00635   0.60355   1.000
    O80     O    0.34258   0.06583   0.70685   1.000
    C81     C    0.02324   0.35979   0.65798   1.000
    O82     O    0.00607   0.40057   0.60358   1.000
    O83     O    0.04238   0.37963   0.65737   1.000
    O84     O    0.06558   0.34250   0.70686   1.000
    C85     C    0.47686   0.35985   0.15793   1.000
    O86     O    0.49401   0.40063   0.10354   1.000
    O87     O    0.43450   0.34252   0.20679   1.000
    O88     O    0.45771   0.37968   0.15733   1.000
    C89     C    0.97692   0.85977   0.84188   1.000
    O90     O    0.95777   0.87961   0.84253   1.000
    O91     O    0.93450   0.84248   0.79307   1.000
    C92     C    0.85991   0.97639   0.84203   1.000
    O93     O    0.84262   0.93412   0.79316   1.000
    O94     O    0.87982   0.95730   0.84262   1.000
    C95     C    0.97673   0.64018   0.34207   1.000
    O96     O    0.95760   0.62034   0.34268   1.000
    O97     O    0.99391   0.59940   0.39647   1.000
    O98     O    0.93441   0.65745   0.29318   1.000
    C99     C    0.64007   0.52359   0.84212   1.000
    O100    O    0.59933   0.50637   0.89652   1.000
    O101    O    0.65735   0.56586   0.79323   1.000
    O102    O    0.62017   0.54268   0.84271   1.000
    O103    O    0.11140   0.11168   0.20693   1.000
loop_
    _geom_bond_atom_site_label_1
    _geom_bond_atom_site_label_2
    _geom_bond_distance
    _geom_bond_site_symmetry_2
    _ccdc_geom_bond_type
    C18    O19       0.82182      .   S
    Zr2    O19       1.82999      .   S
    C18    O20       1.30442      .   S
    Zr8    O20       2.29578      .   S
    C18    O21       1.30327      .   S
    Zr7    O21       2.29370      .   S
    C22    O23       0.38759      .   S
    C14    O23       0.77323      .   S
    C22    O24       0.96725      .   S
    Zr8    O24       1.90170      .   S
    C22    O25       1.01656      .   S
    Zr0    O25       2.07317      .   S
    C27    O28       1.30420      .   S
    Zr9    O28       2.29529      .   S
    C27    O29       1.30381      .   S
    Zr10   O29       2.29461      .   S
    C30    O31       1.30343      .   S
    Zr8    O31       2.29392      .   S
    C30    O32       0.82144      .   S
    Zr1    O32       1.82893  1_655   S
    C30    O33       1.30412      .   S
    Zr7    O33       2.29538      .   S
    C34    O35       1.01705      .   S
    Zr0    O35       2.07586  1_554   S
    C34    O36       0.38746      .   S
    C15    O36       0.77311      .   S
    C34    O37       0.96712      .   S
    Zr6    O37       1.90062      .   S
    C38    O39       1.30449      .   S
    Zr6    O39       2.29596      .   S
    C38    O40       0.82182      .   S
    Zr2    O40       1.83009  1_545   S
    C38    O41       1.30331      .   S
    Zr5    O41       2.29371      .   S
    C42    O43       0.38766      .   S
    C11    O43       0.77333      .   S
    C42    O44       1.01680      .   S
    Zr2    O44       2.07401  1_545   S
    C42    O45       0.96683      .   S
    Zr4    O45       1.90055      .   S
    C46    O47       0.82149      .   S
    Zr1    O47       1.82906      .   S
    C46    O48       1.30339      .   S
    Zr6    O48       2.29384      .   S
    C46    O49       1.30415      .   S
    Zr5    O49       2.29542      .   S
    C50    O51       1.30501      .   S
    Zr3    O51       2.29648      .   S
    C50    O52       1.30412      .   S
    Zr4    O52       2.29463      .   S
    C53    O54       1.30440      .   S
    Zr3    O54       2.29549      .   S
    C53    O55       1.30460      .   S
    Zr4    O55       2.29606      .   S
    C53    O56       0.82109      .   S
    Zr0    O56       1.82865      .   S
    C57    O58       1.30336      .   S
    Zr9    O58       2.29400      .   S
    C57    O59       0.82169      .   S
    Zr0    O59       1.82924  1_554   S
    C57    O60       1.30432      .   S
    Zr10   O60       2.29615      .   S
    C61    O62       0.38752      .   S
    C11    O62       0.77319      .   S
    C61    O63       1.01708      .   S
    Zr2    O63       2.07622  1_545   S
    C61    O64       0.96701      .   S
    Zr4    O64       1.89984      .   S
    C65    O66       0.38752      .   S
    C13    O66       0.77319      .   S
    C65    O67       0.96702      .   S
    Zr10   O67       1.90027      .   S
    C65    O68       1.01665      .   S
    Zr2    O68       2.07486      .   S
    C69    O70       0.38758      .   S
    C12    O70       0.77322      .   S
    C69    O71       1.01675      .   S
    Zr1    O71       2.07363      .   S
    C69    O72       0.96730      .   S
    Zr3    O72       1.90179      .   S
    C73    O74       0.38757      .   S
    C17    O74       0.77321      .   S
    C73    O75       0.96731      .   S
    Zr9    O75       1.90188      .   S
    C73    O76       1.01678      .   S
    Zr1    O76       2.07365  1_655   S
    C77    O78       0.38764      .   S
    C13    O78       0.77331      .   S
    C77    O79       1.01648      .   S
    Zr2    O79       2.07277      .   S
    C77    O80       0.96696      .   S
    Zr10   O80       1.90114      .   S
    C81    O82       1.01733      .   S
    Zr1    O82       2.07620  1_655   S
    C81    O83       0.38751      .   S
    C17    O83       0.77316      .   S
    C81    O84       0.96710      .   S
    Zr9    O84       1.90076      .   S
    C85    O86       1.01704      .   S
    Zr0    O86       2.07551      .   S
    C85    O87       0.96711      .   S
    Zr8    O87       1.90071      .   S
    C85    O88       0.38749      .   S
    C14    O88       0.77314      .   S
    C89    O90       0.38753      .   S
    C16    O90       0.77323      .   S
    C89    O91       0.96705      .   S
    Zr5    O91       1.89978      .   S
    C92    O93       0.96686      .   S
    Zr5    O93       1.90031      .   S
    C92    O94       0.38772      .   S
    C16    O94       0.77343      .   S
    C95    O96       0.38751      .   S
    C12    O96       0.77315      .   S
    C95    O97       1.01730      .   S
    Zr1    O97       2.07613      .   S
    C95    O98       0.96712      .   S
    Zr3    O98       1.90082      .   S
    C99    O100      1.01642      .   S
    Zr0    O100      2.07239  1_554   S
    C99    O101      0.96720      .   S
    Zr6    O101      1.90173      .   S
    C99    O102      0.38762      .   S
    C15    O102      0.77327      .   S
    Zr7    O103      1.66702      .   S
    C26    O103      0.93438      .   S
