# CIF file generated by openbabel 2.4.90, see http://openbabel.sf.net
data_I
_chemical_name_common ''
_cell_length_a 14.039
_cell_length_b 14.068
_cell_length_c 14.791
_cell_angle_alpha 90.014
_cell_angle_beta 89.981
_cell_angle_gamma 89.986
_space_group_name_H-M_alt 'P 1'
_space_group_name_Hall 'P 1'
loop_
    _symmetry_equiv_pos_as_xyz
    x,y,z
loop_
    _atom_site_label
    _atom_site_type_symbol
    _atom_site_fract_x
    _atom_site_fract_y
    _atom_site_fract_z
    _atom_site_occupancy
    Zr0     Zr   0.49999   0.50000   0.00000   1.000
    Zr1     Zr   0.00003   0.99996   0.20000   1.000
    Zr2     Zr   0.99999   0.49998   0.50002   1.000
    Zr3     Zr   0.49999   0.00003   0.50004   1.000
    Zr4     Zr   0.83403   0.66604   0.20736   1.000
    Zr5     Zr   0.66594   0.83390   0.20736   1.000
    Zr6     Zr   0.83404   0.83386   0.70744   1.000
    Zr7     Zr   0.66592   0.66617   0.70745   1.000
    Zr8     Zr   0.16594   0.16613   0.29259   1.000
    Zr9     Zr   0.33405   0.33382   0.29258   1.000
    Zr10    Zr   0.16598   0.33388   0.79265   1.000
    Zr11    Zr   0.33400   0.16616   0.79260   1.000
    C12     C    0.58092   0.91886   0.34328   1.000
    C13     C    0.91904   0.58111   0.34330   1.000
    C14     C    0.41907   0.08113   0.65673   1.000
    C15     C    0.41913   0.41890   0.15674   1.000
    C16     C    0.58082   0.58115   0.84330   1.000
    C17     C    0.91918   0.91883   0.84320   1.000
    C18     C    0.08094   0.41885   0.65676   1.000
    C19     C    0.38648   0.11336   0.40564   1.000
    O20     O    0.42175   0.07814   0.43468   1.000
    O21     O    0.36604   0.19313   0.36510   1.000
    O22     O    0.30666   0.13394   0.36516   1.000
    C23     C    0.35988   0.47646   0.15796   1.000
    O24     O    0.37979   0.45737   0.15735   1.000
    O25     O    0.34261   0.43416   0.20684   1.000
    O26     O    0.40063   0.49368   0.10355   1.000
    C27     C    0.08152   0.08190   0.15810   1.000
    O28     O    0.05122   0.07092   0.16828   1.000
    O29     O    0.07068   0.05154   0.16826   1.000
    O30     O    0.03509   0.07025   0.15375   1.000
    O31     O    0.09471   0.12835   0.20694   1.000
    O32     O    0.07005   0.03551   0.15363   1.000
    O33     O    0.12808   0.09501   0.20692   1.000
    C34     C    0.11336   0.11363   0.90588   1.000
    O35     O    0.13384   0.19333   0.86528   1.000
    O36     O    0.19321   0.13413   0.86531   1.000
    C37     C    0.11340   0.38658   0.40566   1.000
    O38     O    0.19327   0.36600   0.36517   1.000
    O39     O    0.07815   0.42182   0.43469   1.000
    O40     O    0.13390   0.30680   0.36515   1.000
    C41     C    0.52308   0.64019   0.84207   1.000
    O42     O    0.50593   0.59940   0.89645   1.000
    O43     O    0.54223   0.62036   0.84268   1.000
    O44     O    0.56546   0.65750   0.79321   1.000
    C45     C    0.61352   0.88665   0.59437   1.000
    O46     O    0.63395   0.80687   0.63491   1.000
    O47     O    0.57823   0.92189   0.56537   1.000
    O48     O    0.69334   0.86606   0.63485   1.000
    C49     C    0.64014   0.97642   0.34202   1.000
    O50     O    0.62025   0.95733   0.34264   1.000
    O51     O    0.59938   0.99366   0.39644   1.000
    O52     O    0.65740   0.93416   0.29312   1.000
    C53     C    0.88656   0.61340   0.59437   1.000
    O54     O    0.92182   0.57815   0.56535   1.000
    O55     O    0.80670   0.63398   0.63486   1.000
    O56     O    0.86607   0.69317   0.63489   1.000
    C57     C    0.88661   0.88646   0.09410   1.000
    O58     O    0.86615   0.80668   0.13470   1.000
    O59     O    0.80672   0.86595   0.13466   1.000
    C60     C    0.61329   0.61349   0.09417   1.000
    O61     O    0.69319   0.63398   0.13471   1.000
    O62     O    0.63377   0.69326   0.13473   1.000
    O63     O    0.57807   0.57823   0.06521   1.000
    C64     C    0.38650   0.38658   0.90579   1.000
    O65     O    0.30669   0.36603   0.86527   1.000
    O66     O    0.42178   0.42184   0.93477   1.000
    O67     O    0.36606   0.30683   0.86522   1.000
    C68     C    0.52323   0.85979   0.34206   1.000
    O69     O    0.54235   0.87964   0.34268   1.000
    O70     O    0.50604   0.90057   0.39647   1.000
    O71     O    0.56557   0.84252   0.29317   1.000
    C72     C    0.47677   0.14019   0.65792   1.000
    O73     O    0.45764   0.12035   0.65732   1.000
    O74     O    0.43441   0.15748   0.70681   1.000
    O75     O    0.49394   0.09943   0.60354   1.000
    C76     C    0.85986   0.52353   0.34211   1.000
    O77     O    0.87974   0.54263   0.34270   1.000
    O78     O    0.90061   0.50632   0.39651   1.000
    O79     O    0.84260   0.56578   0.29319   1.000
    C80     C    0.14013   0.47643   0.65793   1.000
    O81     O    0.12025   0.45733   0.65734   1.000
    O82     O    0.15739   0.43418   0.70684   1.000
    O83     O    0.09937   0.49364   0.60353   1.000
    C84     C    0.35986   0.02355   0.65796   1.000
    O85     O    0.37974   0.04266   0.65735   1.000
    O86     O    0.40062   0.00635   0.60355   1.000
    O87     O    0.34258   0.06583   0.70685   1.000
    C88     C    0.02324   0.35979   0.65798   1.000
    O89     O    0.00607   0.40057   0.60358   1.000
    O90     O    0.04238   0.37963   0.65737   1.000
    O91     O    0.06558   0.34250   0.70686   1.000
    C92     C    0.47686   0.35985   0.15793   1.000
    O93     O    0.49401   0.40063   0.10354   1.000
    O94     O    0.43450   0.34252   0.20679   1.000
    O95     O    0.45771   0.37968   0.15733   1.000
    C96     C    0.97692   0.85977   0.84188   1.000
    O97     O    0.95777   0.87961   0.84253   1.000
    O98     O    0.93450   0.84248   0.79307   1.000
    C99     C    0.85991   0.97639   0.84203   1.000
    O100    O    0.84262   0.93412   0.79316   1.000
    O101    O    0.87982   0.95730   0.84262   1.000
    C102    C    0.97673   0.64018   0.34207   1.000
    O103    O    0.95760   0.62034   0.34268   1.000
    O104    O    0.99391   0.59940   0.39647   1.000
    O105    O    0.93441   0.65745   0.29318   1.000
    C106    C    0.64007   0.52359   0.84212   1.000
    O107    O    0.59933   0.50637   0.89652   1.000
    O108    O    0.65735   0.56586   0.79323   1.000
    O109    O    0.62017   0.54268   0.84271   1.000
loop_
    _geom_bond_atom_site_label_1
    _geom_bond_atom_site_label_2
    _geom_bond_distance
    _geom_bond_site_symmetry_2
    _ccdc_geom_bond_type
    C19    O20       0.82182      .   S
    Zr3    O20       1.82999      .   S
    C19    O21       1.30442      .   S
    Zr9    O21       2.29578      .   S
    C19    O22       1.30327      .   S
    Zr8    O22       2.29370      .   S
    C23    O24       0.38759      .   S
    C15    O24       0.77323      .   S
    C23    O25       0.96725      .   S
    Zr9    O25       1.90170      .   S
    C23    O26       1.01656      .   S
    Zr0    O26       2.07317      .   S
    C27    O28       0.47688      .   S
    Zr1    O28       1.31659  1_565   S
    C27    O29       0.47769      .   S
    Zr1    O29       1.31563  1_565   S
    C27    O30       0.67523      .   S
    Zr1    O30       1.29940  1_565   S
    C27    O31       0.99143      .   S
    Zr8    O31       1.69946      .   S
    C27    O32       0.67544      .   S
    Zr1    O32       1.29877  1_565   S
    C27    O33       0.99138      .   S
    Zr8    O33       1.69982      .   S
    C34    O35       1.30420      .   S
    Zr10   O35       2.29529      .   S
    C34    O36       1.30381      .   S
    Zr11   O36       2.29461      .   S
    C37    O38       1.30343      .   S
    Zr9    O38       2.29392      .   S
    C37    O39       0.82144      .   S
    Zr2    O39       1.82893  1_655   S
    C37    O40       1.30412      .   S
    Zr8    O40       2.29538      .   S
    C41    O42       1.01705      .   S
    Zr0    O42       2.07586  1_554   S
    C41    O43       0.38746      .   S
    C16    O43       0.77311      .   S
    C41    O44       0.96712      .   S
    Zr7    O44       1.90062      .   S
    C45    O46       1.30449      .   S
    Zr7    O46       2.29596      .   S
    C45    O47       0.82182      .   S
    Zr3    O47       1.83009  1_545   S
    C45    O48       1.30331      .   S
    Zr6    O48       2.29371      .   S
    C49    O50       0.38766      .   S
    C12    O50       0.77333      .   S
    C49    O51       1.01680      .   S
    Zr3    O51       2.07401  1_545   S
    C49    O52       0.96683      .   S
    Zr5    O52       1.90055      .   S
    C53    O54       0.82149      .   S
    Zr2    O54       1.82906      .   S
    C53    O55       1.30339      .   S
    Zr7    O55       2.29384      .   S
    C53    O56       1.30415      .   S
    Zr6    O56       2.29542      .   S
    C57    O58       1.30501      .   S
    Zr4    O58       2.29648      .   S
    C57    O59       1.30412      .   S
    Zr5    O59       2.29463      .   S
    C60    O61       1.30440      .   S
    Zr4    O61       2.29549      .   S
    C60    O62       1.30460      .   S
    Zr5    O62       2.29606      .   S
    C60    O63       0.82109      .   S
    Zr0    O63       1.82865      .   S
    C64    O65       1.30336      .   S
    Zr10   O65       2.29400      .   S
    C64    O66       0.82169      .   S
    Zr0    O66       1.82924  1_554   S
    C64    O67       1.30432      .   S
    Zr11   O67       2.29615      .   S
    C68    O69       0.38752      .   S
    C12    O69       0.77319      .   S
    C68    O70       1.01708      .   S
    Zr3    O70       2.07622  1_545   S
    C68    O71       0.96701      .   S
    Zr5    O71       1.89984      .   S
    C72    O73       0.38752      .   S
    C14    O73       0.77319      .   S
    C72    O74       0.96702      .   S
    Zr11   O74       1.90027      .   S
    C72    O75       1.01665      .   S
    Zr3    O75       2.07486      .   S
    C76    O77       0.38758      .   S
    C13    O77       0.77322      .   S
    C76    O78       1.01675      .   S
    Zr2    O78       2.07363      .   S
    C76    O79       0.96730      .   S
    Zr4    O79       1.90179      .   S
    C80    O81       0.38757      .   S
    C18    O81       0.77321      .   S
    C80    O82       0.96731      .   S
    Zr10   O82       1.90188      .   S
    C80    O83       1.01678      .   S
    Zr2    O83       2.07365  1_655   S
    C84    O85       0.38764      .   S
    C14    O85       0.77331      .   S
    C84    O86       1.01648      .   S
    Zr3    O86       2.07277      .   S
    C84    O87       0.96696      .   S
    Zr11   O87       1.90114      .   S
    C88    O89       1.01733      .   S
    Zr2    O89       2.07620  1_655   S
    C88    O90       0.38751      .   S
    C18    O90       0.77316      .   S
    C88    O91       0.96710      .   S
    Zr10   O91       1.90076      .   S
    C92    O93       1.01704      .   S
    Zr0    O93       2.07551      .   S
    C92    O94       0.96711      .   S
    Zr9    O94       1.90071      .   S
    C92    O95       0.38749      .   S
    C15    O95       0.77314      .   S
    C96    O97       0.38753      .   S
    C17    O97       0.77323      .   S
    C96    O98       0.96705      .   S
    Zr6    O98       1.89978      .   S
    C99    O100      0.96686      .   S
    Zr6    O100      1.90031      .   S
    C99    O101      0.38772      .   S
    C17    O101      0.77343      .   S
    C102   O103      0.38751      .   S
    C13    O103      0.77315      .   S
    C102   O104      1.01730      .   S
    Zr2    O104      2.07613      .   S
    C102   O105      0.96712      .   S
    Zr4    O105      1.90082      .   S
    C106   O107      1.01642      .   S
    Zr0    O107      2.07239  1_554   S
    C106   O108      0.96720      .   S
    Zr7    O108      1.90173      .   S
    C106   O109      0.38762      .   S
    C16    O109      0.77327      .   S
