# CIF file generated by openbabel 2.4.90, see http://openbabel.sf.net
data_I
_chemical_name_common ''
_cell_length_a 23.02
_cell_length_b 14.98
_cell_length_c 14.982
_cell_angle_alpha 90.008
_cell_angle_beta 89.98
_cell_angle_gamma 90.016
_space_group_name_H-M_alt 'P 1'
_space_group_name_Hall 'P 1'
loop_
    _symmetry_equiv_pos_as_xyz
    x,y,z
loop_
    _atom_site_label
    _atom_site_type_symbol
    _atom_site_fract_x
    _atom_site_fract_y
    _atom_site_fract_z
    _atom_site_occupancy
    Zr0     Zr   0.37501   0.88716   0.11286   1.000
    Zr1     Zr   0.87502   0.88716   0.11286   1.000
    Zr2     Zr   0.12499   0.11287   0.88712   1.000
    Zr3     Zr   0.62500   0.11288   0.88712   1.000
    Zr4     Zr   0.25000   0.38715   0.38712   1.000
    Zr5     Zr   0.75001   0.38715   0.38712   1.000
    Zr6     Zr   1.00000   0.61289   0.61284   1.000
    Zr7     Zr   0.50001   0.61288   0.61284   1.000
    N8      N    0.38928   0.82799   0.73411   1.000
    O9      O    0.37921   0.85673   0.88780   1.000
    N10     N    0.51429   0.23410   0.67202   1.000
    O11     O    0.50421   0.38780   0.64328   1.000
    N12     N    0.86077   0.26590   0.17199   1.000
    O13     O    0.87084   0.11221   0.14327   1.000
    N14     N    0.11072   0.73415   0.82792   1.000
    O15     O    0.12079   0.88783   0.85666   1.000
    N16     N    0.01429   0.23413   0.67203   1.000
    O17     O    0.00421   0.38782   0.64329   1.000
    N18     N    0.88929   0.82799   0.73411   1.000
    O19     O    0.87922   0.85673   0.88780   1.000
    N20     N    0.36076   0.26590   0.17200   1.000
    O21     O    0.37083   0.11221   0.14328   1.000
    N22     N    0.23574   0.32801   0.76585   1.000
    O23     O    0.24581   0.35673   0.61217   1.000
    N24     N    0.73575   0.32801   0.76585   1.000
    O25     O    0.74582   0.35673   0.61217   1.000
    N26     N    0.61072   0.73416   0.82790   1.000
    O27     O    0.62080   0.88784   0.85665   1.000
    N28     N    0.98573   0.67206   0.23405   1.000
    O29     O    0.99580   0.64332   0.38775   1.000
    N30     N    0.63926   0.17202   0.26587   1.000
    O31     O    0.62919   0.14329   0.11219   1.000
    N32     N    0.13925   0.17202   0.26587   1.000
    O33     O    0.12918   0.14329   0.11219   1.000
    N34     N    0.48573   0.67206   0.23410   1.000
    O35     O    0.49581   0.64332   0.38778   1.000
    N36     N    0.26426   0.76590   0.32798   1.000
    O37     O    0.25419   0.61221   0.35671   1.000
    N38     N    0.76426   0.76590   0.32797   1.000
    O39     O    0.75420   0.61221   0.35669   1.000
    O40     O    0.19066   0.24116   0.82816   1.000
    O41     O    0.05935   0.17182   0.75886   1.000
    O42     O    0.94067   0.75889   0.17177   1.000
    O43     O    0.80935   0.82821   0.24113   1.000
    O44     O    0.69067   0.24116   0.82816   1.000
    O45     O    0.55935   0.17181   0.75885   1.000
    O46     O    0.93435   0.74115   0.67179   1.000
    O47     O    0.06565   0.67184   0.74107   1.000
    O48     O    0.68434   0.25886   0.32818   1.000
    O49     O    0.81568   0.32820   0.25884   1.000
    O50     O    0.44066   0.75890   0.17180   1.000
    O51     O    0.30934   0.82821   0.24114   1.000
    O52     O    0.56565   0.67185   0.74108   1.000
    O53     O    0.43435   0.74115   0.67180   1.000
    O54     O    0.31568   0.32820   0.25884   1.000
    O55     O    0.18433   0.25886   0.32818   1.000
loop_
    _geom_bond_atom_site_label_1
    _geom_bond_atom_site_label_2
    _geom_bond_distance
    _geom_bond_site_symmetry_2
    _ccdc_geom_bond_type
    N8     O9        2.35381      .   S
    Zr0    O9        3.40384  1_554   S
    N10    O11       2.35389      .   S
    Zr7    O11       3.40389      .   S
    N12    O13       2.35353      .   S
    Zr1    O13       3.40321  1_565   S
    N14    O15       2.35351      .   S
    Zr2    O15       3.40313  1_545   S
    N16    O17       2.35379      .   S
    Zr6    O17       3.40375  1_655   S
    N18    O19       2.35381      .   S
    Zr1    O19       3.40384  1_554   S
    N20    O21       2.35353      .   S
    Zr0    O21       3.40322  1_565   S
    N22    O23       2.35372      .   S
    Zr4    O23       3.40376      .   S
    N24    O25       2.35371      .   S
    Zr5    O25       3.40368      .   S
    N26    O27       2.35351      .   S
    Zr3    O27       3.40310  1_545   S
    N28    O29       2.35429      .   S
    Zr6    O29       3.40438      .   S
    N30    O31       2.35380      .   S
    Zr3    O31       3.40396  1_556   S
    N32    O33       2.35381      .   S
    Zr2    O33       3.40397  1_556   S
    N34    O35       2.35393      .   S
    Zr7    O35       3.40401      .   S
    N36    O37       2.35360      .   S
    Zr4    O37       3.40350      .   S
    N38    O39       2.35358      .   S
    Zr5    O39       3.40355      .   S
    Zr2    O40       2.59927      .   S
    N22    O40       1.90783      .   S
    Zr2    O41       2.59984      .   S
    N16    O41       1.90821      .   S
    Zr1    O42       2.59960      .   S
    N28    O42       1.90808      .   S
    Zr1    O43       2.59928      .   S
    N38    O43       1.90784      .   S
    Zr3    O44       2.59923      .   S
    N24    O44       1.90788      .   S
    Zr3    O45       2.59989      .   S
    N10    O45       1.90819      .   S
    Zr6    O46       2.59919      .   S
    N18    O46       1.90780      .   S
    Zr6    O47       2.59914  1_655   S
    N14    O47       1.90802      .   S
    Zr5    O48       2.59939      .   S
    N30    O48       1.90796      .   S
    Zr5    O49       2.59947      .   S
    N12    O49       1.90795      .   S
    Zr0    O50       2.59982      .   S
    N34    O50       1.90823      .   S
    Zr0    O51       2.59929      .   S
    N36    O51       1.90785      .   S
    Zr7    O52       2.59931      .   S
    N26    O52       1.90777      .   S
    Zr7    O53       2.59938      .   S
    N8     O53       1.90785      .   S
    Zr4    O54       2.59942      .   S
    N20    O54       1.90793      .   S
    Zr4    O55       2.59939      .   S
    N32    O55       1.90797      .   S
