# CIF file generated by openbabel 2.4.90, see http://openbabel.sf.net
data_I
_chemical_name_common ''
_cell_length_a 11.307
_cell_length_b 24.27
_cell_length_c 22.852
_cell_angle_alpha 99.337
_cell_angle_beta 89.988
_cell_angle_gamma 90
_space_group_name_H-M_alt 'P 1'
_space_group_name_Hall 'P 1'
loop_
    _symmetry_equiv_pos_as_xyz
    x,y,z
loop_
    _atom_site_label
    _atom_site_type_symbol
    _atom_site_fract_x
    _atom_site_fract_y
    _atom_site_fract_z
    _atom_site_occupancy
    N0      N    0.33256   0.37596   0.06866   1.000
    N1      N    0.83255   0.37596   0.06866   1.000
    N2      N    0.33224   0.87593   0.06878   1.000
    N3      N    0.83223   0.87593   0.06879   1.000
    N4      N    0.16760   0.62406   0.93133   1.000
    N5      N    0.66783   0.12405   0.93118   1.000
    N6      N    0.66759   0.62405   0.93133   1.000
    N7      N    0.91774   0.12574   0.56843   1.000
    N8      N    0.91744   0.62574   0.56849   1.000
    N9      N    0.41775   0.12574   0.56843   1.000
    N10     N    0.41744   0.62574   0.56849   1.000
    N11     N    0.16784   0.12405   0.93118   1.000
    N12     N    0.08269   0.37425   0.43151   1.000
    N13     N    0.08236   0.87425   0.43149   1.000
    N14     N    0.58269   0.37425   0.43150   1.000
    N15     N    0.58235   0.87425   0.43149   1.000
    Zr16    Zr   0.86704   0.06760   0.22250   1.000
    O17     O    0.79629   0.08817   0.14577   1.000
    O18     O    0.95959   0.08747   0.14302   1.000
    O19     O    0.89006   0.09013   0.31969   1.000
    O20     O    0.77886   0.01194   0.27915   1.000
    O21     O    0.85562   0.01067   0.17262   1.000
    O22     O    0.94172   0.01342   0.27787   1.000
    Zr23    Zr   0.36732   0.56752   0.22258   1.000
    O24     O    0.44203   0.51336   0.27793   1.000
    O25     O    0.35593   0.51064   0.17261   1.000
    O26     O    0.29643   0.58810   0.14588   1.000
    O27     O    0.27918   0.51188   0.27920   1.000
    O28     O    0.45973   0.58743   0.14314   1.000
    O29     O    0.39014   0.59007   0.31977   1.000
    Zr30    Zr   0.86731   0.56752   0.22258   1.000
    O31     O    0.89013   0.59007   0.31977   1.000
    O32     O    0.77917   0.51188   0.27920   1.000
    O33     O    0.95972   0.58743   0.14314   1.000
    O34     O    0.85592   0.51064   0.17261   1.000
    O35     O    0.94203   0.51336   0.27793   1.000
    O36     O    0.79642   0.58810   0.14588   1.000
    Zr37    Zr   0.11772   0.18299   0.27728   1.000
    O38     O    0.21004   0.16287   0.35668   1.000
    O39     O    0.19233   0.23703   0.22202   1.000
    O40     O    0.02946   0.23859   0.22075   1.000
    O41     O    0.14046   0.16029   0.18000   1.000
    O42     O    0.04673   0.16225   0.35393   1.000
    O43     O    0.10629   0.23979   0.32733   1.000
    Zr44    Zr   0.13299   0.93241   0.77745   1.000
    O45     O    0.04044   0.91253   0.85693   1.000
    O46     O    0.22118   0.98807   0.72080   1.000
    O47     O    0.05833   0.98658   0.72207   1.000
    O48     O    0.10999   0.90987   0.68025   1.000
    O49     O    0.20374   0.91183   0.85419   1.000
    O50     O    0.14442   0.98932   0.82734   1.000
    Zr51    Zr   0.13280   0.43247   0.77741   1.000
    O52     O    0.20370   0.41189   0.85411   1.000
    O53     O    0.04039   0.41257   0.85684   1.000
    O54     O    0.05809   0.48663   0.72206   1.000
    O55     O    0.14420   0.48936   0.82738   1.000
    O56     O    0.10998   0.40992   0.68022   1.000
    O57     O    0.22094   0.48812   0.72079   1.000
    Zr58    Zr   0.36705   0.06760   0.22250   1.000
    O59     O    0.27887   0.01194   0.27915   1.000
    O60     O    0.45960   0.08747   0.14302   1.000
    O61     O    0.39007   0.09013   0.31969   1.000
    O62     O    0.44172   0.01342   0.27787   1.000
    O63     O    0.35563   0.01067   0.17261   1.000
    O64     O    0.29630   0.08817   0.14577   1.000
    Zr65    Zr   0.38243   0.81703   0.72272   1.000
    O66     O    0.29009   0.83715   0.64329   1.000
    O67     O    0.45339   0.83776   0.64605   1.000
    O68     O    0.30781   0.76299   0.77797   1.000
    O69     O    0.35965   0.83972   0.81998   1.000
    O70     O    0.47068   0.76143   0.77923   1.000
    O71     O    0.39386   0.76023   0.67267   1.000
    Zr72    Zr   0.61771   0.18299   0.27728   1.000
    O73     O    0.60628   0.23979   0.32733   1.000
    O74     O    0.64045   0.16029   0.18000   1.000
    O75     O    0.54673   0.16225   0.35393   1.000
    O76     O    0.69232   0.23704   0.22202   1.000
    O77     O    0.71003   0.16287   0.35668   1.000
    O78     O    0.52946   0.23859   0.22075   1.000
    Zr79    Zr   0.63279   0.43247   0.77741   1.000
    O80     O    0.60997   0.40992   0.68022   1.000
    O81     O    0.70369   0.41189   0.85411   1.000
    O82     O    0.72093   0.48812   0.72079   1.000
    O83     O    0.64419   0.48936   0.82738   1.000
    O84     O    0.55808   0.48663   0.72206   1.000
    O85     O    0.54039   0.41257   0.85684   1.000
    Zr86    Zr   0.61740   0.68291   0.27735   1.000
    O87     O    0.52915   0.73852   0.22083   1.000
    O88     O    0.60597   0.73974   0.32738   1.000
    O89     O    0.70974   0.66281   0.35675   1.000
    O90     O    0.69202   0.73696   0.22211   1.000
    O91     O    0.64023   0.66022   0.18011   1.000
    O92     O    0.54644   0.66219   0.35400   1.000
    Zr93    Zr   0.11742   0.68291   0.27735   1.000
    O94     O    0.20974   0.66281   0.35675   1.000
    O95     O    0.04644   0.66219   0.35400   1.000
    O96     O    0.14024   0.66022   0.18011   1.000
    O97     O    0.02915   0.73852   0.22083   1.000
    O98     O    0.19203   0.73696   0.22210   1.000
    O99     O    0.10598   0.73974   0.32738   1.000
    Zr100   Zr   0.63298   0.93241   0.77745   1.000
    O101    O    0.54044   0.91253   0.85693   1.000
    O102    O    0.70373   0.91183   0.85419   1.000
    O103    O    0.60998   0.90987   0.68025   1.000
    O104    O    0.72117   0.98807   0.72080   1.000
    O105    O    0.55832   0.98658   0.72207   1.000
    O106    O    0.64441   0.98932   0.82734   1.000
    Zr107   Zr   0.88264   0.31707   0.72265   1.000
    O108    O    0.95363   0.33779   0.64599   1.000
    O109    O    0.79033   0.33717   0.64325   1.000
    O110    O    0.85984   0.33976   0.81988   1.000
    O111    O    0.89409   0.26024   0.67260   1.000
    O112    O    0.80802   0.26302   0.77789   1.000
    O113    O    0.97090   0.26146   0.77916   1.000
    Zr114   Zr   0.38265   0.31706   0.72265   1.000
    O115    O    0.47090   0.26146   0.77916   1.000
    O116    O    0.39410   0.26024   0.67260   1.000
    O117    O    0.35985   0.33976   0.81988   1.000
    O118    O    0.29034   0.33717   0.64325   1.000
    O119    O    0.45363   0.33779   0.64599   1.000
    O120    O    0.30803   0.26302   0.77789   1.000
    Zr121   Zr   0.88242   0.81703   0.72272   1.000
    O122    O    0.79008   0.83715   0.64329   1.000
    O123    O    0.89385   0.76023   0.67267   1.000
    O124    O    0.95339   0.83776   0.64605   1.000
    O125    O    0.97067   0.76143   0.77923   1.000
    O126    O    0.85964   0.83972   0.81999   1.000
    O127    O    0.80780   0.76299   0.77797   1.000
loop_
    _geom_bond_atom_site_label_1
    _geom_bond_atom_site_label_2
    _geom_bond_distance
    _geom_bond_site_symmetry_2
    _ccdc_geom_bond_type
    Zr16   O17       2.06127      .   S
    N5     O17       5.32011  1_556   S
    Zr16   O18       2.21586      .   S
    N11    O18       5.58190  1_456   S
    Zr16   O19       2.21489      .   S
    N7     O19       5.61810      .   S
    Zr16   O20       2.24980      .   S
    N15    O20       5.65635  1_565   S
    Zr16   O21       1.64743      .   S
    N3     O21       3.72510  1_565   S
    Zr16   O22       2.14095      .   S
    N13    O22       5.48715  1_465   S
    Zr23   O24       2.14022      .   S
    N14    O24       5.48567      .   S
    Zr23   O25       1.64772      .   S
    N0     O25       3.72526      .   S
    Zr23   O26       2.06131      .   S
    N4     O26       5.32109  1_556   S
    Zr23   O27       2.24899      .   S
    N12    O27       5.65471      .   S
    Zr23   O28       2.21455      .   S
    N6     O28       5.57984  1_556   S
    Zr23   O29       2.21473      .   S
    N10    O29       5.61720      .   S
    Zr30   O31       2.21472      .   S
    N8     O31       5.61717      .   S
    Zr30   O32       2.24894      .   S
    N14    O32       5.65457      .   S
    Zr30   O33       2.21461      .   S
    N4     O33       5.57995  1_456   S
    Zr30   O34       1.64772      .   S
    N1     O34       3.72526      .   S
    Zr30   O35       2.14029      .   S
    N12    O35       5.48582  1_455   S
    Zr30   O36       2.06129      .   S
    N6     O36       5.32103  1_556   S
    Zr37   O38       2.21571      .   S
    N9     O38       5.58225      .   S
    Zr37   O39       2.13624      .   S
    N0     O39       5.47699      .   S
    Zr37   O40       2.24755      .   S
    N1     O40       5.64942  1_655   S
    Zr37   O41       2.21666      .   S
    N11    O41       5.61943  1_556   S
    Zr37   O42       2.06178      .   S
    N7     O42       5.32427  1_655   S
    Zr37   O43       1.64717      .   S
    N12    O43       3.72393      .   S
    Zr44   O45       2.21594      .   S
    N3     O45       5.58227  1_654   S
    Zr44   O46       2.24990      .   S
    N9     O46       5.65685  1_545   S
    Zr44   O47       2.14084      .   S
    N7     O47       5.48726  1_645   S
    Zr44   O48       2.21500      .   S
    N13    O48       5.61852      .   S
    Zr44   O49       2.06143      .   S
    N2     O49       5.32055  1_554   S
    Zr44   O50       1.64739      .   S
    N11    O50       3.72497  1_545   S
    Zr51   O52       2.06127      .   S
    N0     O52       5.32089  1_554   S
    Zr51   O53       2.21446      .   S
    N1     O53       5.57962  1_654   S
    Zr51   O54       2.14020      .   S
    N8     O54       5.48567  1_655   S
    Zr51   O55       1.64788      .   S
    N4     O55       3.72544      .   S
    Zr51   O56       2.21466      .   S
    N12    O56       5.61705      .   S
    Zr51   O57       2.24895      .   S
    N10    O57       5.65462      .   S
    Zr58   O59       2.24980      .   S
    N13    O59       5.65636  1_565   S
    Zr58   O60       2.21581      .   S
    N5     O60       5.58183  1_556   S
    Zr58   O61       2.21487      .   S
    N9     O61       5.61805      .   S
    Zr58   O62       2.14092      .   S
    N15    O62       5.48714  1_565   S
    Zr58   O63       1.64752      .   S
    N2     O63       3.72511  1_565   S
    Zr58   O64       2.06128      .   S
    N11    O64       5.32013  1_556   S
    Zr65   O66       2.21610      .   S
    N13    O66       5.58344      .   S
    Zr65   O67       2.06212      .   S
    N15    O67       5.32511      .   S
    Zr65   O68       2.13619      .   S
    N4     O68       5.47687      .   S
    Zr65   O69       2.21641      .   S
    N2     O69       5.61892  1_554   S
    Zr65   O70       2.24726      .   S
    N6     O70       5.64955      .   S
    Zr65   O71       1.64737      .   S
    N10    O71       3.72429      .   S
    Zr72   O73       1.64713      .   S
    N14    O73       3.72383      .   S
    Zr72   O74       2.21666      .   S
    N5     O74       5.61942  1_556   S
    Zr72   O75       2.06174      .   S
    N9     O75       5.32421      .   S
    Zr72   O76       2.13624      .   S
    N1     O76       5.47699      .   S
    Zr72   O77       2.21574      .   S
    N7     O77       5.58233      .   S
    Zr72   O78       2.24751      .   S
    N0     O78       5.64936      .   S
    Zr79   O80       2.21471      .   S
    N14    O80       5.61720      .   S
    Zr79   O81       2.06127      .   S
    N1     O81       5.32090  1_554   S
    Zr79   O82       2.24897      .   S
    N8     O82       5.65467      .   S
    Zr79   O83       1.64789      .   S
    N6     O83       3.72546      .   S
    Zr79   O84       2.14017      .   S
    N10    O84       5.48562      .   S
    Zr79   O85       2.21441      .   S
    N0     O85       5.57956  1_554   S
    Zr86   O87       2.24749      .   S
    N2     O87       5.64931      .   S
    Zr86   O88       1.64745      .   S
    N15    O88       3.72413      .   S
    Zr86   O89       2.21543      .   S
    N8     O89       5.58163      .   S
    Zr86   O90       2.13619      .   S
    N3     O90       5.47669      .   S
    Zr86   O91       2.21589      .   S
    N6     O91       5.61852  1_556   S
    Zr86   O92       2.06172      .   S
    N10    O92       5.32329      .   S
    Zr93   O94       2.21543      .   S
    N10    O94       5.58163      .   S
    Zr93   O95       2.06173      .   S
    N8     O95       5.32328  1_655   S
    Zr93   O96       2.21591      .   S
    N4     O96       5.61857  1_556   S
    Zr93   O97       2.24751      .   S
    N3     O97       5.64927  1_655   S
    Zr93   O98       2.13622      .   S
    N2     O98       5.47680      .   S
    Zr93   O99       1.64745      .   S
    N13    O99       3.72413      .   S
    Zr100  O101      2.21587      .   S
    N2     O101      5.58209  1_554   S
    Zr100  O102      2.06147      .   S
    N3     O102      5.32068  1_554   S
    Zr100  O103      2.21499      .   S
    N15    O103      5.61850      .   S
    Zr100  O104      2.24990      .   S
    N7     O104      5.65684  1_545   S
    Zr100  O105      2.14082      .   S
    N9     O105      5.48726  1_545   S
    Zr100  O106      1.64739      .   S
    N5     O106      3.72498  1_545   S
    Zr107  O108      2.06186      .   S
    N12    O108      5.32358  1_455   S
    Zr107  O109      2.21537      .   S
    N14    O109      5.58162      .   S
    Zr107  O110      2.21580      .   S
    N1     O110      5.61823  1_554   S
    Zr107  O111      1.64768      .   S
    N7     O111      3.72457      .   S
    Zr107  O112      2.13604      .   S
    N5     O112      5.47631      .   S
    Zr107  O113      2.24740      .   S
    N11    O113      5.64892  1_455   S
    Zr114  O115      2.24735      .   S
    N5     O115      5.64887      .   S
    Zr114  O116      1.64768      .   S
    N9     O116      3.72458      .   S
    Zr114  O117      2.21580      .   S
    N0     O117      5.61823  1_554   S
    Zr114  O118      2.21534      .   S
    N12    O118      5.58151      .   S
    Zr114  O119      2.06188      .   S
    N14    O119      5.32371      .   S
    Zr114  O120      2.13604      .   S
    N11    O120      5.47630      .   S
    Zr121  O122      2.21608      .   S
    N15    O122      5.58339      .   S
    Zr121  O123      1.64738      .   S
    N8     O123      3.72432      .   S
    Zr121  O124      2.06215      .   S
    N13    O124      5.32516  1_455   S
    Zr121  O125      2.24730      .   S
    N4     O125      5.64958  1_455   S
    Zr121  O126      2.21645      .   S
    N3     O126      5.61906  1_554   S
    Zr121  O127      2.13621      .   S
    N6     O127      5.47692      .   S
