# CIF file generated by openbabel 2.4.90, see http://openbabel.sf.net
data_I
_chemical_name_common ''
_cell_length_a 11.307
_cell_length_b 24.27
_cell_length_c 22.852
_cell_angle_alpha 99.337
_cell_angle_beta 89.988
_cell_angle_gamma 90
_space_group_name_H-M_alt 'P 1'
_space_group_name_Hall 'P 1'
loop_
    _symmetry_equiv_pos_as_xyz
    x,y,z
loop_
    _atom_site_label
    _atom_site_type_symbol
    _atom_site_fract_x
    _atom_site_fract_y
    _atom_site_fract_z
    _atom_site_occupancy
    Zr0     Zr   0.13280   0.43247   0.77741   1.000
    Zr1     Zr   0.13299   0.93241   0.77745   1.000
    Zr2     Zr   0.63279   0.43247   0.77741   1.000
    Zr3     Zr   0.63298   0.93241   0.77745   1.000
    Zr4     Zr   0.38265   0.31706   0.72265   1.000
    Zr5     Zr   0.38243   0.81703   0.72272   1.000
    Zr6     Zr   0.88264   0.31706   0.72265   1.000
    Zr7     Zr   0.88242   0.81703   0.72272   1.000
    Zr8     Zr   0.36705   0.06760   0.22250   1.000
    Zr9     Zr   0.36732   0.56752   0.22258   1.000
    Zr10    Zr   0.86704   0.06760   0.22250   1.000
    Zr11    Zr   0.86731   0.56752   0.22258   1.000
    Zr12    Zr   0.11772   0.18299   0.27728   1.000
    Zr13    Zr   0.11742   0.68291   0.27735   1.000
    Zr14    Zr   0.61771   0.18299   0.27728   1.000
    Zr15    Zr   0.61740   0.68291   0.27735   1.000
    N16     N    0.33256   0.37596   0.06866   1.000
    O17     O    0.44799   0.39267   0.93628   1.000
    O18     O    0.44121   0.29419   0.16422   1.000
    O19     O    0.34453   0.45376   0.12264   1.000
    O20     O    0.27460   0.39132   0.93081   1.000
    O21     O    0.33706   0.36246   0.91712   1.000
    O22     O    0.26695   0.29108   0.16677   1.000
    N23     N    0.83255   0.37596   0.06866   1.000
    O24     O    0.94799   0.39267   0.93628   1.000
    O25     O    0.94121   0.29419   0.16422   1.000
    O26     O    0.84452   0.45376   0.12264   1.000
    O27     O    0.77459   0.39132   0.93081   1.000
    O28     O    0.83705   0.36246   0.91712   1.000
    O29     O    0.76694   0.29108   0.16677   1.000
    N30     N    0.33224   0.87593   0.06878   1.000
    O31     O    0.44789   0.89265   0.93641   1.000
    O32     O    0.44090   0.79412   0.16431   1.000
    O33     O    0.34421   0.95374   0.12272   1.000
    O34     O    0.27450   0.89126   0.93093   1.000
    O35     O    0.33686   0.86241   0.91725   1.000
    O36     O    0.26664   0.79102   0.16686   1.000
    N37     N    0.83223   0.87593   0.06879   1.000
    O38     O    0.77449   0.89126   0.93093   1.000
    O39     O    0.83685   0.86241   0.91725   1.000
    O40     O    0.94789   0.89265   0.93642   1.000
    O41     O    0.94089   0.79412   0.16431   1.000
    O42     O    0.84420   0.95374   0.12273   1.000
    O43     O    0.76663   0.79102   0.16686   1.000
    N44     N    0.16760   0.62406   0.93133   1.000
    O45     O    0.15560   0.54625   0.87735   1.000
    O46     O    0.23319   0.70894   0.83322   1.000
    O47     O    0.22553   0.60869   0.06918   1.000
    O48     O    0.16306   0.63754   0.08287   1.000
    O49     O    0.05214   0.60734   0.06371   1.000
    O50     O    0.05893   0.70583   0.83574   1.000
    N51     N    0.66783   0.12405   0.93118   1.000
    O52     O    0.65585   0.04624   0.87723   1.000
    O53     O    0.73341   0.20897   0.83312   1.000
    O54     O    0.72553   0.10874   0.06903   1.000
    O55     O    0.66320   0.13759   0.08273   1.000
    O56     O    0.55214   0.10733   0.06354   1.000
    O57     O    0.55915   0.20585   0.83567   1.000
    N58     N    0.66759   0.62405   0.93133   1.000
    O59     O    0.65559   0.54625   0.87735   1.000
    O60     O    0.72552   0.60869   0.06918   1.000
    O61     O    0.66305   0.63754   0.08287   1.000
    O62     O    0.55213   0.60734   0.06371   1.000
    O63     O    0.55892   0.70583   0.83574   1.000
    O64     O    0.73318   0.70894   0.83322   1.000
    N65     N    0.91774   0.12574   0.56843   1.000
    O66     O    0.98367   0.04076   0.66670   1.000
    O67     O    0.80236   0.14274   0.43609   1.000
    O68     O    0.80937   0.04373   0.66415   1.000
    O69     O    0.90554   0.20342   0.62255   1.000
    O70     O    0.91308   0.11267   0.41688   1.000
    O71     O    0.97575   0.14151   0.43057   1.000
    N72     N    0.91744   0.62574   0.56849   1.000
    O73     O    0.90528   0.70342   0.62261   1.000
    O74     O    0.98338   0.54078   0.66672   1.000
    O75     O    0.91294   0.61262   0.41697   1.000
    O76     O    0.97547   0.64147   0.43066   1.000
    O77     O    0.80207   0.64272   0.43615   1.000
    O78     O    0.80908   0.54376   0.66417   1.000
    N79     N    0.41775   0.12574   0.56843   1.000
    O80     O    0.48367   0.04076   0.66670   1.000
    O81     O    0.30237   0.14274   0.43609   1.000
    O82     O    0.30938   0.04373   0.66415   1.000
    O83     O    0.40555   0.20342   0.62255   1.000
    O84     O    0.41309   0.11267   0.41688   1.000
    O85     O    0.47575   0.14151   0.43057   1.000
    N86     N    0.41744   0.62574   0.56849   1.000
    O87     O    0.48338   0.54078   0.66672   1.000
    O88     O    0.30207   0.64272   0.43615   1.000
    O89     O    0.30909   0.54376   0.66417   1.000
    O90     O    0.40529   0.70342   0.62261   1.000
    O91     O    0.41295   0.61262   0.41697   1.000
    O92     O    0.47547   0.64147   0.43066   1.000
    N93     N    0.16784   0.12405   0.93118   1.000
    O94     O    0.23341   0.20897   0.83312   1.000
    O95     O    0.22554   0.10874   0.06903   1.000
    O96     O    0.16321   0.13759   0.08273   1.000
    O97     O    0.05215   0.10733   0.06354   1.000
    O98     O    0.05915   0.20585   0.83567   1.000
    O99     O    0.15586   0.04624   0.87723   1.000
    N100    N    0.08269   0.37425   0.43151   1.000
    O101    O    0.19802   0.35727   0.56385   1.000
    O102    O    0.19104   0.45623   0.33583   1.000
    O103    O    0.09486   0.29658   0.37738   1.000
    O104    O    0.01674   0.45921   0.33328   1.000
    O105    O    0.08716   0.38737   0.58303   1.000
    O106    O    0.02462   0.35852   0.56934   1.000
    N107    N    0.08236   0.87425   0.43149   1.000
    O108    O    0.19775   0.85726   0.56387   1.000
    O109    O    0.19069   0.95627   0.33579   1.000
    O110    O    0.09455   0.79656   0.37740   1.000
    O111    O    0.01639   0.95923   0.33325   1.000
    O112    O    0.08700   0.88734   0.58306   1.000
    O113    O    0.02436   0.85849   0.56937   1.000
    N114    N    0.58269   0.37425   0.43150   1.000
    O115    O    0.69802   0.35727   0.56385   1.000
    O116    O    0.69103   0.45623   0.33582   1.000
    O117    O    0.59486   0.29658   0.37738   1.000
    O118    O    0.51674   0.45921   0.33327   1.000
    O119    O    0.58715   0.38737   0.58303   1.000
    O120    O    0.52462   0.35852   0.56934   1.000
    N121    N    0.58235   0.87425   0.43149   1.000
    O122    O    0.58699   0.88734   0.58306   1.000
    O123    O    0.52436   0.85849   0.56937   1.000
    O124    O    0.69774   0.85726   0.56387   1.000
    O125    O    0.69068   0.95627   0.33579   1.000
    O126    O    0.59454   0.79656   0.37740   1.000
    O127    O    0.51639   0.95923   0.33325   1.000
loop_
    _geom_bond_atom_site_label_1
    _geom_bond_atom_site_label_2
    _geom_bond_distance
    _geom_bond_site_symmetry_2
    _ccdc_geom_bond_type
    N16    O17       3.37871  1_554   S
    Zr2    O17       4.42883      .   S
    N16    O18       3.40948      .   S
    Zr14   O18       4.49502      .   S
    N16    O19       2.08550      .   S
    Zr9    O19       3.29544      .   S
    N16    O20       3.29748  1_554   S
    Zr0    O20       4.12254      .   S
    N16    O21       3.42547  1_554   S
    Zr4    O21       4.43160      .   S
    N16    O22       3.36437      .   S
    Zr12   O22       4.27248      .   S
    N23    O24       3.37873  1_554   S
    Zr0    O24       4.42891  1_455   S
    N23    O25       3.40950      .   S
    Zr12   O25       4.49511  1_455   S
    N23    O26       2.08550      .   S
    Zr11   O26       3.29544      .   S
    N23    O27       3.29749  1_554   S
    Zr2    O27       4.12254      .   S
    N23    O28       3.42547  1_554   S
    Zr6    O28       4.43160      .   S
    N23    O29       3.36437      .   S
    Zr14   O29       4.27248      .   S
    N30    O31       3.37969  1_554   S
    Zr3    O31       4.43173      .   S
    N30    O32       3.40943      .   S
    Zr15   O32       4.49499      .   S
    N30    O33       2.08547      .   S
    Zr8    O33       3.29503  1_545   S
    N30    O34       3.29696  1_554   S
    Zr1    O34       4.12286      .   S
    N30    O35       3.42543  1_554   S
    Zr5    O35       4.43282      .   S
    N30    O36       3.36419      .   S
    Zr13   O36       4.27244      .   S
    N37    O38       3.29705  1_554   S
    Zr3    O38       4.12295      .   S
    N37    O39       3.42552  1_554   S
    Zr7    O39       4.43290      .   S
    N37    O40       3.37979  1_554   S
    Zr1    O40       4.43189  1_455   S
    N37    O41       3.40938      .   S
    Zr13   O41       4.49501  1_455   S
    N37    O42       2.08553      .   S
    Zr10   O42       3.29485  1_545   S
    N37    O43       3.36412      .   S
    Zr15   O43       4.27237      .   S
    N44    O45       2.08552      .   S
    Zr0    O45       3.29576      .   S
    N44    O46       3.36431      .   S
    Zr5    O46       4.27238      .   S
    N44    O47       3.29765  1_556   S
    Zr9    O47       4.12262      .   S
    N44    O48       3.42570  1_556   S
    Zr13   O48       4.43181      .   S
    N44    O49       3.37890  1_556   S
    Zr11   O49       4.42921  1_655   S
    N44    O50       3.40994      .   S
    Zr7    O50       4.49459  1_655   S
    N51    O52       2.08545      .   S
    Zr3    O52       3.29478  1_565   S
    N51    O53       3.36390      .   S
    Zr6    O53       4.27209      .   S
    N51    O54       3.29672  1_556   S
    Zr10   O54       4.12254      .   S
    N51    O55       3.42563  1_556   S
    Zr14   O55       4.43332      .   S
    N51    O56       3.37946  1_556   S
    Zr8    O56       4.43163      .   S
    N51    O57       3.40912      .   S
    Zr4    O57       4.49471      .   S
    N58    O59       2.08553      .   S
    Zr2    O59       3.29578      .   S
    N58    O60       3.29761  1_556   S
    Zr11   O60       4.12258      .   S
    N58    O61       3.42566  1_556   S
    Zr15   O61       4.43178      .   S
    N58    O62       3.37885  1_556   S
    Zr9    O62       4.42910      .   S
    N58    O63       3.40994      .   S
    Zr5    O63       4.49453      .   S
    N58    O64       3.36434      .   S
    Zr7    O64       4.27241      .   S
    N65    O66       3.36976      .   S
    Zr1    O66       4.28168  1_465   S
    N65    O67       3.38016      .   S
    Zr14   O67       4.43148      .   S
    N65    O68       3.41462      .   S
    Zr3    O68       4.49979  1_565   S
    N65    O69       2.08477      .   S
    Zr6    O69       3.29536      .   S
    N65    O70       3.42661      .   S
    Zr10   O70       4.42977      .   S
    N65    O71       3.30031      .   S
    Zr12   O71       4.12357  1_455   S
    N72    O73       2.08483      .   S
    Zr7    O73       3.29476      .   S
    N72    O74       3.36888      .   S
    Zr0    O74       4.28041  1_455   S
    N72    O75       3.42573      .   S
    Zr11   O75       4.42944      .   S
    N72    O76       3.29934      .   S
    Zr13   O76       4.12346  1_455   S
    N72    O77       3.37977      .   S
    Zr15   O77       4.43086      .   S
    N72    O78       3.41336      .   S
    Zr2    O78       4.49794      .   S
    N79    O80       3.36978      .   S
    Zr3    O80       4.28164  1_565   S
    N79    O81       3.38011      .   S
    Zr12   O81       4.43143      .   S
    N79    O82       3.41463      .   S
    Zr1    O82       4.49980  1_565   S
    N79    O83       2.08477      .   S
    Zr4    O83       3.29537      .   S
    N79    O84       3.42657      .   S
    Zr8    O84       4.42974      .   S
    N79    O85       3.30028      .   S
    Zr14   O85       4.12349      .   S
    N86    O87       3.36885      .   S
    Zr2    O87       4.28033      .   S
    N86    O88       3.37977      .   S
    Zr13   O88       4.43085      .   S
    N86    O89       3.41333      .   S
    Zr0    O89       4.49790      .   S
    N86    O90       2.08482      .   S
    Zr5    O90       3.29474      .   S
    N86    O91       3.42575      .   S
    Zr9    O91       4.42945      .   S
    N86    O92       3.29936      .   S
    Zr15   O92       4.12343      .   S
    N93    O94       3.36388      .   S
    Zr4    O94       4.27208      .   S
    N93    O95       3.29674  1_556   S
    Zr8    O95       4.12255      .   S
    N93    O96       3.42564  1_556   S
    Zr12   O96       4.43333      .   S
    N93    O97       3.37948  1_556   S
    Zr10   O97       4.43171  1_655   S
    N93    O98       3.40914      .   S
    Zr6    O98       4.49480  1_655   S
    N93    O99       2.08544      .   S
    Zr1    O99       3.29477  1_565   S
    N100   O101      3.37975      .   S
    Zr4    O101      4.43068      .   S
    N100   O102      3.41338      .   S
    Zr9    O102      4.49798      .   S
    N100   O103      2.08465      .   S
    Zr12   O103      3.29434      .   S
    N100   O104      3.36893      .   S
    Zr11   O104      4.28058  1_655   S
    N100   O105      3.42569      .   S
    Zr0    O105      4.42931      .   S
    N100   O106      3.29950      .   S
    Zr6    O106      4.12372  1_655   S
    N107   O108      3.38091      .   S
    Zr5    O108      4.43220      .   S
    N107   O109      3.41423      .   S
    Zr8    O109      4.49961  1_545   S
    N107   O110      2.08456      .   S
    Zr13   O110      3.29491      .   S
    N107   O111      3.36951      .   S
    Zr10   O111      4.28189  1_645   S
    N107   O112      3.42689      .   S
    Zr1    O112      4.43001      .   S
    N107   O113      3.30079      .   S
    Zr7    O113      4.12431  1_655   S
    N114   O115      3.37983      .   S
    Zr6    O115      4.43074      .   S
    N114   O116      3.41329      .   S
    Zr11   O116      4.49788      .   S
    N114   O117      2.08459      .   S
    Zr14   O117      3.29426      .   S
    N114   O118      3.36885      .   S
    Zr9    O118      4.28045      .   S
    N114   O119      3.42580      .   S
    Zr2    O119      4.42941      .   S
    N114   O120      3.29960      .   S
    Zr4    O120      4.12376      .   S
    N121   O122      3.42688      .   S
    Zr3    O122      4.42999      .   S
    N121   O123      3.30077      .   S
    Zr5    O123      4.12424      .   S
    N121   O124      3.38088      .   S
    Zr7    O124      4.43216      .   S
    N121   O125      3.41423      .   S
    Zr10   O125      4.49960  1_545   S
    N121   O126      2.08456      .   S
    Zr15   O126      3.29490      .   S
    N121   O127      3.36952      .   S
    Zr8    O127      4.28185  1_545   S
