# CIF file generated by openbabel 2.4.90, see http://openbabel.sf.net
data_I
_chemical_name_common ''
_cell_length_a 15.604
_cell_length_b 18.904
_cell_length_c 19.853
_cell_angle_alpha 88.505
_cell_angle_beta 90.614
_cell_angle_gamma 90.146
_space_group_name_H-M_alt 'P 1'
_space_group_name_Hall 'P 1'
loop_
    _symmetry_equiv_pos_as_xyz
    x,y,z
loop_
    _atom_site_label
    _atom_site_type_symbol
    _atom_site_fract_x
    _atom_site_fract_y
    _atom_site_fract_z
    _atom_site_occupancy
    H0      H    0.95243   0.82588   0.75283   1.000
    H1      H    0.94404   0.80767   0.29040   1.000
    H2      H    0.11380   0.65363   0.50964   1.000
    H3      H    0.94398   0.83608   0.62612   1.000
    H4      H    0.84749   0.03693   0.75800   1.000
    H5      H    0.01337   0.76719   0.52006   1.000
    H6      H    0.88026   0.02846   0.26099   1.000
    H7      H    0.11796   0.88307   0.07847   1.000
    H8      H    0.84271   0.03738   0.63158   1.000
    H9      H    0.94011   0.82658   0.41520   1.000
    H10     H    0.11691   0.89513   0.95152   1.000
    H11     H    0.69385   0.94516   0.08091   1.000
    H12     H    0.69119   0.94955   0.95343   1.000
    H13     H    0.87801   0.03796   0.38648   1.000
    H14     H    0.45206   0.67410   0.24776   1.000
    H15     H    0.44408   0.69237   0.70970   1.000
    H16     H    0.61277   0.84571   0.48876   1.000
    H17     H    0.44289   0.66384   0.37428   1.000
    H18     H    0.34838   0.46227   0.24044   1.000
    H19     H    0.51230   0.73146   0.48012   1.000
    H20     H    0.37928   0.47153   0.73790   1.000
    H21     H    0.61813   0.61703   0.92446   1.000
    H22     H    0.34273   0.46180   0.36677   1.000
    H23     H    0.43945   0.67361   0.58476   1.000
    H24     H    0.61715   0.60505   0.05137   1.000
    H25     H    0.19373   0.55466   0.91520   1.000
    H26     H    0.19120   0.55023   0.04263   1.000
    H27     H    0.37591   0.46229   0.61242   1.000
    H28     H    0.04754   0.17409   0.24719   1.000
    H29     H    0.05594   0.19231   0.70958   1.000
    H30     H    0.88619   0.34635   0.49039   1.000
    H31     H    0.05599   0.16390   0.37390   1.000
    H32     H    0.15251   0.96305   0.24202   1.000
    H33     H    0.98662   0.23279   0.47997   1.000
    H34     H    0.11974   0.97153   0.73903   1.000
    H35     H    0.88203   0.11691   0.92154   1.000
    H36     H    0.15729   0.96261   0.36844   1.000
    H37     H    0.05987   0.17340   0.58473   1.000
    H38     H    0.88308   0.10485   0.04800   1.000
    H39     H    0.30614   0.05482   0.91910   1.000
    H40     H    0.30880   0.05044   0.04659   1.000
    H41     H    0.12199   0.96203   0.61354   1.000
    H42     H    0.54792   0.32588   0.75226   1.000
    H43     H    0.55593   0.30759   0.29032   1.000
    H44     H    0.38720   0.15427   0.51126   1.000
    H45     H    0.55709   0.33614   0.62574   1.000
    H46     H    0.65161   0.53771   0.75958   1.000
    H47     H    0.48768   0.26852   0.51900   1.000
    H48     H    0.62068   0.52845   0.26203   1.000
    H49     H    0.38186   0.38295   0.07556   1.000
    H50     H    0.65725   0.53818   0.63325   1.000
    H51     H    0.56056   0.32636   0.41525   1.000
    H52     H    0.38284   0.39493   0.94865   1.000
    H53     H    0.80625   0.44532   0.08482   1.000
    H54     H    0.80879   0.44975   0.95739   1.000
    H55     H    0.62404   0.53769   0.38759   1.000
    C56     C    0.12647   0.83118   0.49883   1.000
    C57     C    0.98176   0.91232   0.94475   1.000
    C58     C    0.29364   0.67804   0.48356   1.000
    C59     C    0.92791   0.87373   0.72787   1.000
    C60     C    0.98263   0.91971   0.87024   1.000
    C61     C    0.92921   0.85948   0.30983   1.000
    C62     C    0.91083   0.91696   0.26692   1.000
    C63     C    0.13455   0.70837   0.50340   1.000
    C64     C    0.90012   0.93101   0.76458   1.000
    C65     C    0.98341   0.90132   0.08657   1.000
    C66     C    0.92373   0.87902   0.65782   1.000
    C67     C    0.82236   0.93420   0.87089   1.000
    C68     C    0.86878   0.99114   0.73080   1.000
    C69     C    0.08166   0.76823   0.50910   1.000
    C70     C    0.82826   0.92487   0.08731   1.000
    C71     C    0.90417   0.91930   0.98015   1.000
    C72     C    0.98606   0.89659   0.16131   1.000
    C73     C    0.89292   0.98257   0.29368   1.000
    C74     C    0.05862   0.89358   0.05060   1.000
    C75     C    0.82820   0.92321   0.16201   1.000
    C76     C    0.86650   0.99180   0.66078   1.000
    C77     C    0.21904   0.72593   0.48952   1.000
    C78     C    0.90526   0.91500   0.05190   1.000
    C79     C    0.92770   0.86980   0.37900   1.000
    C80     C    0.82573   0.93155   0.94552   1.000
    C81     C    0.05796   0.89982   0.97996   1.000
    C82     C    0.75206   0.93756   0.05210   1.000
    C83     C    0.75069   0.94036   0.98148   1.000
    C84     C    0.89228   0.98795   0.36328   1.000
    C85     C    0.09216   0.90344   0.50305   1.000
    C86     C    0.62640   0.66832   0.50116   1.000
    C87     C    0.48194   0.58767   0.05602   1.000
    C88     C    0.79401   0.82234   0.51408   1.000
    C89     C    0.42768   0.62605   0.27220   1.000
    C90     C    0.48285   0.58029   0.13059   1.000
    C91     C    0.42886   0.64059   0.69003   1.000
    C92     C    0.41040   0.58305   0.73262   1.000
    C93     C    0.63397   0.79116   0.49529   1.000
    C94     C    0.40034   0.56861   0.23492   1.000
    C95     C    0.48350   0.59868   0.91415   1.000
    N96     N    0.59161   0.41051   0.19490   1.000
    O97     O    0.01815   0.91061   0.52767   1.000
    O98     O    0.14131   0.95470   0.48410   1.000
    O99     O    0.36727   0.70400   0.47492   1.000
    C100    C    0.42316   0.62070   0.34218   1.000
    C101    C    0.32251   0.56565   0.12732   1.000
    C102    C    0.36924   0.50821   0.26802   1.000
    C103    C    0.58100   0.73088   0.49057   1.000
    C104    C    0.32824   0.57503   0.91097   1.000
    C105    C    0.40428   0.58064   0.01935   1.000
    C106    C    0.48606   0.60335   0.83941   1.000
    C107    C    0.39199   0.51747   0.70554   1.000
    C108    C    0.55877   0.60648   0.95136   1.000
    C109    C    0.32805   0.57673   0.83626   1.000
    C110    C    0.36656   0.50753   0.33807   1.000
    C111    C    0.71905   0.77426   0.50872   1.000
    C112    C    0.40534   0.58491   0.94760   1.000
    C113    C    0.42687   0.63036   0.62073   1.000
    C114    C    0.32583   0.56830   0.05273   1.000
    C115    C    0.55813   0.60028   0.02201   1.000
    C116    C    0.25202   0.56226   0.94486   1.000
    C117    C    0.25071   0.55946   0.01554   1.000
    C118    C    0.39083   0.51220   0.63591   1.000
    C119    C    0.59283   0.59555   0.49787   1.000
    C120    C    0.87351   0.16881   0.50120   1.000
    C121    C    0.01823   0.08768   0.05527   1.000
    C122    C    0.70634   0.32195   0.51646   1.000
    C123    C    0.07207   0.12625   0.27215   1.000
    C124    C    0.01735   0.08027   0.12978   1.000
    C125    C    0.07078   0.14050   0.69019   1.000
    C126    C    0.08916   0.08303   0.73310   1.000
    C127    C    0.86544   0.29161   0.49659   1.000
    C128    C    0.09986   0.06897   0.23544   1.000
    C129    C    0.01657   0.09865   0.91345   1.000
    C130    C    0.07624   0.12096   0.34220   1.000
    C131    C    0.17762   0.06578   0.12913   1.000
    C132    C    0.13121   0.00884   0.26910   1.000
    C133    C    0.91833   0.23175   0.49087   1.000
    C134    C    0.17173   0.07510   0.91271   1.000
    C135    C    0.09582   0.08067   0.01987   1.000
    C136    C    0.01393   0.10340   0.83871   1.000
    C137    C    0.10708   0.01742   0.70634   1.000
    C138    C    0.94137   0.10641   0.94940   1.000
    C139    C    0.17180   0.07678   0.83801   1.000
    C140    C    0.13349   0.00819   0.33924   1.000
    C141    C    0.78095   0.27405   0.51050   1.000
    C142    C    0.09473   0.08499   0.94812   1.000
    C143    C    0.07228   0.13018   0.62092   1.000
    C144    C    0.17426   0.06845   0.05450   1.000
    C145    C    0.94203   0.10016   0.02000   1.000
    C146    C    0.24793   0.06242   0.94780   1.000
    C147    C    0.24929   0.05961   0.01854   1.000
    C148    C    0.10772   0.01203   0.63674   1.000
    C149    C    0.90783   0.09654   0.49697   1.000
    C150    C    0.37358   0.33166   0.49886   1.000
    C151    C    0.51804   0.41230   0.94400   1.000
    C152    C    0.20597   0.17764   0.48594   1.000
    C153    C    0.57230   0.37393   0.72780   1.000
    C154    C    0.51714   0.41969   0.86943   1.000
    C155    C    0.57114   0.35938   0.30999   1.000
    C156    C    0.58958   0.41693   0.26740   1.000
    C157    C    0.36601   0.20882   0.50470   1.000
    C158    C    0.59964   0.43137   0.76500   1.000
    C159    C    0.51648   0.40130   0.08587   1.000
    C160    C    0.57682   0.37928   0.65783   1.000
    C161    C    0.67748   0.43433   0.87200   1.000
    C162    C    0.63075   0.49177   0.73200   1.000
    C163    C    0.41898   0.26910   0.50945   1.000
    C164    C    0.67175   0.42495   0.08905   1.000
    C165    C    0.59570   0.41936   0.98067   1.000
    C166    C    0.51394   0.39662   0.16061   1.000
    C167    C    0.60798   0.48251   0.29448   1.000
    C168    C    0.44122   0.39349   0.04866   1.000
    C169    C    0.67194   0.42325   0.16375   1.000
    C170    C    0.63342   0.49245   0.66195   1.000
    C171    C    0.28094   0.22573   0.49129   1.000
    C172    C    0.59465   0.41505   0.05240   1.000
    C173    C    0.57312   0.36961   0.37929   1.000
    C174    C    0.67416   0.43167   0.94729   1.000
    C175    C    0.44185   0.39970   0.97801   1.000
    C176    C    0.74797   0.43771   0.05516   1.000
    C177    C    0.74928   0.44052   0.98447   1.000
    C178    C    0.60913   0.48777   0.36410   1.000
    C179    C    0.40715   0.40443   0.50215   1.000
    S180    S    0.23355   0.81637   0.48237   1.000
    S181    S    0.73406   0.68399   0.51660   1.000
    S182    S    0.76643   0.18362   0.51765   1.000
    S183    S    0.26592   0.31600   0.48341   1.000
    N184    N    0.90904   0.93280   0.40554   1.000
    N185    N    0.90220   0.92762   0.83753   1.000
    N186    N    0.89364   0.93707   0.62477   1.000
    N187    N    0.90852   0.91046   0.19446   1.000
    N188    N    0.40758   0.56744   0.59397   1.000
    N189    N    0.40243   0.57213   0.16198   1.000
    N190    N    0.39309   0.56248   0.37464   1.000
    N191    N    0.40838   0.58947   0.80506   1.000
    N192    N    0.09095   0.06718   0.59448   1.000
    N193    N    0.09779   0.07236   0.16249   1.000
    N194    N    0.10634   0.06291   0.37525   1.000
    N195    N    0.09146   0.08951   0.80556   1.000
    N196    N    0.59240   0.43254   0.40605   1.000
    N197    N    0.59756   0.42785   0.83800   1.000
    N198    N    0.60689   0.43750   0.62538   1.000
    O199    O    0.04952   0.91957   0.83817   1.000
    O200    O    0.05205   0.88274   0.19305   1.000
    O201    O    0.27729   0.61112   0.48894   1.000
    O202    O    0.75541   0.94138   0.83890   1.000
    O203    O    0.76324   0.93218   0.19459   1.000
    O204    O    0.51775   0.58660   0.47478   1.000
    O205    O    0.64426   0.54531   0.51608   1.000
    O206    O    0.86770   0.79628   0.52275   1.000
    O207    O    0.54972   0.58060   0.16370   1.000
    O208    O    0.55202   0.61717   0.80863   1.000
    O209    O    0.77806   0.88925   0.50843   1.000
    O210    O    0.25554   0.55856   0.15823   1.000
    O211    O    0.26300   0.56779   0.80260   1.000
    O212    O    0.98184   0.08938   0.47235   1.000
    O213    O    0.85868   0.04528   0.51586   1.000
    O214    O    0.63271   0.29599   0.52500   1.000
    O215    O    0.95047   0.08041   0.16185   1.000
    O216    O    0.94794   0.11725   0.80697   1.000
    O217    O    0.72271   0.38887   0.51107   1.000
    O218    O    0.24458   0.05861   0.16110   1.000
    O219    O    0.23675   0.06781   0.80543   1.000
    O220    O    0.48223   0.41339   0.52524   1.000
    O221    O    0.35572   0.45467   0.48393   1.000
    O222    O    0.13228   0.20370   0.47727   1.000
    O223    O    0.45026   0.41938   0.83623   1.000
    O224    O    0.44797   0.38281   0.19139   1.000
    O225    O    0.22192   0.11074   0.49158   1.000
    O226    O    0.74445   0.44143   0.84179   1.000
    O227    O    0.73699   0.43220   0.19737   1.000
loop_
    _geom_bond_atom_site_label_1
    _geom_bond_atom_site_label_2
    _geom_bond_distance
    _geom_bond_site_symmetry_2
    _ccdc_geom_bond_type
    C117   H26       1.08953      .   S
    C117   C114      1.39067      .   S
    C117   C116      1.40320  1_554   S
    C147   H40       1.08948      .   S
    C147   C144      1.39056      .   S
    C147   C146      1.40395  1_554   S
    C105   C114      1.41422      .   S
    C105   C87       1.41475      .   S
    C105   C112      1.42491  1_554   S
    C135   C144      1.41398      .   S
    C135   C121      1.41459      .   S
    C135   C142      1.42458  1_554   S
    C145   H38       1.08482      .   S
    C145   C121      1.39098  1_655   S
    C145   C138      1.40345  1_554   S
    C115   H24       1.08941      .   S
    C115   C87       1.39045      .   S
    C115   C108      1.40459  1_554   S
    C168   H49       1.08951      .   S
    C168   C159      1.39028      .   S
    C168   C175      1.40460  1_554   S
    C74    H7        1.08945      .   S
    C74    C65       1.39034  1_455   S
    C74    C81       1.40423  1_554   S
    C78    C65       1.41497      .   S
    C78    C70       1.41380      .   S
    C78    C71       1.42457  1_554   S
    C82    H11       1.09040      .   S
    C82    C70       1.39095      .   S
    C82    C83       1.40157  1_554   S
    C172   C159      1.41544      .   S
    C172   C164      1.41392      .   S
    C172   C165      1.42453  1_554   S
    C114   C101      1.48183      .   S
    C144   C131      1.48154      .   S
    C176   H53       1.08947      .   S
    C176   C164      1.39010      .   S
    C176   C177      1.40340  1_554   S
    C121   C124      1.48243      .   S
    C87    C90       1.48329      .   S
    C159   C166      1.48509      .   S
    C65    C72       1.48432      .   S
    C70    C75       1.48254      .   S
    C164   C169      1.48250      .   S
    C101   O210      1.22291      .   S
    C101   N189      1.42432      .   S
    C131   O218      1.22267      .   S
    C131   N193      1.42437      .   S
    C124   O215      1.22840  1_455   S
    C124   N193      1.41340      .   S
    C90    N189      1.41337      .   S
    C90    O207      1.22739      .   S
    C166   O224      1.22678      .   S
    C166   N96       1.41119      .   S
    C72    O200      1.22668  1_655   S
    C72    N187      1.41191      .   S
    N189   C94       1.44858      .   S
    C75    N187      1.42140      .   S
    C75    O203      1.22273      .   S
    N193   C128      1.44804      .   S
    C169   N96       1.42084      .   S
    C169   O227      1.22268      .   S
    N187   C62       1.44703      .   S
    N96    C156      1.44829      .   S
    C94    C102      1.39135      .   S
    C94    C89       1.39344      .   S
    C128   C132      1.39073      .   S
    C128   C123      1.39355      .   S
    H18    C102      1.08600      .   S
    H32    C132      1.08545  1_565   S
    H28    C123      1.08836      .   S
    H14    C89       1.08831      .   S
    H6     C73       1.08699  1_545   S
    H48    C167      1.08682      .   S
    C62    C73       1.39212      .   S
    C62    C61       1.39166      .   S
    C156   C167      1.39212      .   S
    C156   C155      1.39170      .   S
    C102   C110      1.39151      .   S
    C132   C140      1.39229      .   S
    C123   C130      1.39253      .   S
    C89    C100      1.39288      .   S
    H43    C155      1.08809      .   S
    H1     C61       1.08832      .   S
    C73    C84       1.38830      .   S
    C167   C178      1.38826      .   S
    C61    C79       1.39251      .   S
    C155   C173      1.39432      .   S
    C110   H22       1.08967      .   S
    C110   N190      1.34467      .   S
    C140   H36       1.08962  1_545   S
    C140   N194      1.34462      .   S
    C100   H17       1.08975      .   S
    C100   N190      1.34677      .   S
    C130   H31       1.08960      .   S
    C130   N194      1.34673      .   S
    C84    H13       1.08690  1_565   S
    C84    N184      1.34556      .   S
    C178   H55       1.08704      .   S
    C178   N196      1.34534      .   S
    C79    N184      1.34849      .   S
    C79    H9        1.09024      .   S
    C173   N196      1.34747      .   S
    C173   H51       1.09010      .   S
    O212   C149      1.26774      .   S
    O204   C119      1.26605      .   S
    O99    C58       1.25982      .   S
    O222   C152      1.26049      .   S
    H33    C133      1.08966      .   S
    H19    C103      1.08973      .   S
    S180   C77       1.72622      .   S
    S180   C56       1.73078      .   S
    S183   C171      1.72579      .   S
    S183   C150      1.73061      .   S
    C58    O201      1.29184      .   S
    C58    C77       1.48425      .   S
    O221   C179      1.28706      .   S
    O98    C85       1.28527      .   S
    C152   C171      1.48424      .   S
    C152   O225      1.29147      .   S
    H16    C93       1.08788      .   S
    C77    C63       1.38750      .   S
    H30    C127      1.08778      .   S
    C103   C93       1.41051      .   S
    C103   C86       1.39026      .   S
    C133   C127      1.40995      .   S
    C133   C120      1.39030      .   S
    C171   C157      1.38755      .   S
    C93    C111      1.38762      .   S
    C127   C141      1.38763      .   S
    C149   C120      1.47337      .   S
    C149   O213      1.28494      .   S
    C119   C86       1.47359      .   S
    C119   O205      1.28705      .   S
    C56    C85       1.47335      .   S
    C56    C69       1.39013      .   S
    C150   C179      1.47362      .   S
    C150   C163      1.39025      .   S
    C86    S181      1.73062      .   S
    C120   S182      1.73075      .   S
    C179   O220      1.26603      .   S
    C85    O97       1.26773      .   S
    C63    C69       1.40992      .   S
    C63    H2        1.08785      .   S
    C157   C163      1.41055      .   S
    C157   H44       1.08792      .   S
    O209   C88       1.29149      .   S
    C111   C88       1.48424      .   S
    C111   S181      1.72579      .   S
    C69    H5        1.08991      .   S
    C163   H47       1.08668      .   S
    C141   C122      1.48425      .   S
    C141   S182      1.72622      .   S
    O217   C122      1.29184      .   S
    C88    O206      1.26049      .   S
    C122   O214      1.25957      .   S
    H37    C143      1.09012      .   S
    H23    C113      1.09024      .   S
    N188   C113      1.34745      .   S
    N188   C118      1.34523      .   S
    N192   C143      1.34767      .   S
    N192   C148      1.34554      .   S
    H27    C118      1.08704      .   S
    H41    C148      1.08691  1_565   S
    C113   C91       1.39433      .   S
    C143   C125      1.39448      .   S
    N186   C66       1.34674      .   S
    N186   C76       1.34462      .   S
    N198   C160      1.34669      .   S
    N198   C170      1.34465      .   S
    H45    C160      1.08966      .   S
    H3     C66       1.08958      .   S
    H8     C76       1.08962  1_545   S
    H50    C170      1.08967      .   S
    C118   C107      1.38846      .   S
    C148   C137      1.38830      .   S
    C66    C59       1.39253      .   S
    C160   C153      1.39268      .   S
    C76    C68       1.38991      .   S
    C170   C162      1.39150      .   S
    C91    H15       1.08807      .   S
    C91    C92       1.39169      .   S
    C125   H29       1.08802      .   S
    C125   C126      1.39163      .   S
    C107   C92       1.39211      .   S
    C107   H20       1.08581      .   S
    C137   C126      1.39215      .   S
    C137   H34       1.08700  1_545   S
    C153   H42       1.08846      .   S
    C153   C158      1.39256      .   S
    C59    H0        1.08836      .   S
    C59    C64       1.39355      .   S
    C68    H4        1.08668  1_565   S
    C68    C64       1.39180      .   S
    C162   H46       1.08602      .   S
    C162   C158      1.39047      .   S
    C92    N191      1.44709      .   S
    C126   N195      1.44700      .   S
    C64    N185      1.44804      .   S
    C158   N197      1.44977      .   S
    O211   C109      1.22306      .   S
    N191   C109      1.42129      .   S
    N191   C106      1.41176      .   S
    O219   C139      1.22275      .   S
    N195   C139      1.42141      .   S
    N195   C136      1.41193      .   S
    O216   C136      1.22668  1_655   S
    O208   C106      1.22679      .   S
    O223   C154      1.22836      .   S
    C109   C104      1.48270      .   S
    N185   C60       1.41339      .   S
    N185   C67       1.42436      .   S
    N197   C154      1.41372      .   S
    N197   C161      1.41815      .   S
    C139   C134      1.48254      .   S
    O199   C60       1.22839  1_455   S
    C136   C129      1.48433      .   S
    O202   C67       1.22284      .   S
    C106   C95       1.48509      .   S
    O226   C161      1.21592      .   S
    C154   C151      1.48331      .   S
    C60    C57       1.48240      .   S
    C67    C80       1.48154      .   S
    C161   C174      1.49571      .   S
    C104   C116      1.39009      .   S
    C104   C112      1.41372      .   S
    C134   C146      1.38977      .   S
    C134   C142      1.41380      .   S
    C129   C142      1.41495      .   S
    C129   C138      1.39013  1_455   S
    C95    C112      1.41526      .   S
    C95    C108      1.39028      .   S
    H25    C116      1.08948      .   S
    H39    C146      1.08924      .   S
    H35    C138      1.08934      .   S
    H21    C108      1.08951      .   S
    C151   C175      1.39045      .   S
    C151   C165      1.41476      .   S
    C57    C81       1.39041  1_655   S
    C57    C71       1.41461      .   S
    C80    C71       1.41401      .   S
    C80    C83       1.39055      .   S
    C174   C165      1.41424      .   S
    C174   C177      1.39057      .   S
    H52    C175      1.08940      .   S
    H10    C81       1.08941      .   S
    H12    C83       1.08950      .   S
    H54    C177      1.08943      .   S
