# CIF file generated by openbabel 2.4.90, see http://openbabel.sf.net
data_I
_chemical_name_common ''
_cell_length_a 15.23
_cell_length_b 17.848
_cell_length_c 17.848
_cell_angle_alpha 90
_cell_angle_beta 90
_cell_angle_gamma 89.999
_space_group_name_H-M_alt 'P 1'
_space_group_name_Hall 'P 1'
loop_
    _symmetry_equiv_pos_as_xyz
    x,y,z
loop_
    _atom_site_label
    _atom_site_type_symbol
    _atom_site_fract_x
    _atom_site_fract_y
    _atom_site_fract_z
    _atom_site_occupancy
    Zn0     Zn   0.37160   0.75001   0.75000   1.000
    Zn1     Zn   0.62841   0.25000   0.25000   1.000
    Zn2     Zn   0.12840   0.25000   0.25000   1.000
    H3      H    0.75572   0.81826   0.87222   1.000
    H4      H    0.75568   0.83422   0.01161   1.000
    H5      H    0.99303   0.70227   0.01881   1.000
    H6      H    0.98906   0.69800   0.87853   1.000
    H7      H    0.87955   0.65515   0.12610   1.000
    H8      H    0.87307   0.90601   0.24931   1.000
    H9      H    0.86953   0.89585   0.11067   1.000
    H10     H    0.75572   0.68175   0.62778   1.000
    H11     H    0.75568   0.66579   0.48838   1.000
    H12     H    0.99303   0.79773   0.48118   1.000
    H13     H    0.98905   0.80201   0.62147   1.000
    H14     H    0.87953   0.84486   0.37383   1.000
    H15     H    0.87309   0.59400   0.25068   1.000
    H16     H    0.86954   0.60416   0.38932   1.000
    H17     H    0.75572   0.62778   0.81825   1.000
    H18     H    0.75568   0.48838   0.83422   1.000
    H19     H    0.99304   0.48118   0.70227   1.000
    H20     H    0.98906   0.62147   0.69799   1.000
    H21     H    0.87954   0.37383   0.65514   1.000
    H22     H    0.87309   0.25069   0.90601   1.000
    H23     H    0.86954   0.38933   0.89584   1.000
    H24     H    0.75572   0.87223   0.68175   1.000
    H25     H    0.75569   0.01162   0.66578   1.000
    H26     H    0.99304   0.01882   0.79773   1.000
    H27     H    0.98905   0.87853   0.80201   1.000
    Zn28    Zn   0.87161   0.75000   0.75000   1.000
    H29     H    0.87955   0.12617   0.84486   1.000
    H30     H    0.87308   0.24932   0.59399   1.000
    H31     H    0.86954   0.11067   0.60416   1.000
    H32     H    0.25571   0.81826   0.62778   1.000
    H33     H    0.25567   0.83422   0.48838   1.000
    H34     H    0.49303   0.70227   0.48118   1.000
    H35     H    0.48905   0.69800   0.62147   1.000
    H36     H    0.37953   0.65515   0.37383   1.000
    H37     H    0.37307   0.90601   0.25068   1.000
    H38     H    0.36953   0.89585   0.38933   1.000
    H39     H    0.25571   0.68175   0.87222   1.000
    H40     H    0.25567   0.66579   0.01160   1.000
    H41     H    0.49303   0.79773   0.01881   1.000
    H42     H    0.48905   0.80201   0.87853   1.000
    H43     H    0.37953   0.84486   0.12617   1.000
    H44     H    0.37307   0.59400   0.24931   1.000
    H45     H    0.36953   0.60416   0.11067   1.000
    H46     H    0.25571   0.62778   0.68175   1.000
    H47     H    0.25567   0.48838   0.66578   1.000
    H48     H    0.49303   0.48118   0.79773   1.000
    H49     H    0.48905   0.62147   0.80201   1.000
    H50     H    0.37953   0.37383   0.84486   1.000
    H51     H    0.37308   0.25069   0.59399   1.000
    H52     H    0.36953   0.38933   0.60416   1.000
    H53     H    0.25571   0.87223   0.81820   1.000
    H54     H    0.25568   0.01162   0.83422   1.000
    H55     H    0.49303   0.01882   0.70227   1.000
    H56     H    0.48905   0.87854   0.69000   1.000
    H57     H    0.37954   0.12617   0.65514   1.000
    H58     H    0.37307   0.24932   0.90601   1.000
    H59     H    0.36954   0.11067   0.89580   1.000
    H60     H    0.74430   0.18175   0.37222   1.000
    H61     H    0.74434   0.16578   0.51162   1.000
    H62     H    0.50698   0.29773   0.51882   1.000
    H63     H    0.51096   0.30201   0.37853   1.000
    H64     H    0.62048   0.34486   0.62617   1.000
    H65     H    0.62694   0.09399   0.74931   1.000
    H66     H    0.63048   0.10416   0.61067   1.000
    H67     H    0.74430   0.31825   0.12777   1.000
    H68     H    0.74433   0.33422   0.98838   1.000
    H69     H    0.50698   0.20227   0.98118   1.000
    H70     H    0.51096   0.19799   0.12140   1.000
    H71     H    0.62048   0.15514   0.87383   1.000
    H72     H    0.62694   0.40601   0.75060   1.000
    H73     H    0.63048   0.39585   0.88933   1.000
    H74     H    0.74430   0.37222   0.31825   1.000
    H75     H    0.74433   0.51162   0.33421   1.000
    H76     H    0.50698   0.51882   0.20227   1.000
    H77     H    0.51096   0.37853   0.19799   1.000
    H78     H    0.62047   0.62617   0.15514   1.000
    H79     H    0.62694   0.74932   0.40600   1.000
    H80     H    0.63048   0.61067   0.39584   1.000
    H81     H    0.74430   0.12778   0.18174   1.000
    H82     H    0.74433   0.98838   0.16578   1.000
    H83     H    0.50698   0.98119   0.29773   1.000
    H84     H    0.51096   0.12147   0.30200   1.000
    H85     H    0.62048   0.87384   0.34480   1.000
    H86     H    0.62693   0.75069   0.09399   1.000
    H87     H    0.63047   0.88933   0.10415   1.000
    H88     H    0.24429   0.18175   0.12777   1.000
    H89     H    0.24433   0.16578   0.98838   1.000
    H90     H    0.00697   0.29773   0.98118   1.000
    H91     H    0.01095   0.30201   0.12140   1.000
    H92     H    0.12047   0.34486   0.87383   1.000
    H93     H    0.12693   0.09399   0.75060   1.000
    H94     H    0.13048   0.10416   0.88933   1.000
    H95     H    0.24429   0.31825   0.37222   1.000
    C96     C    0.37201   0.14534   0.84553   1.000
    C97     C    0.69154   0.20460   0.40680   1.000
    C98     C    0.69158   0.19667   0.48428   1.000
    C99     C    0.62545   0.23097   0.52695   1.000
    H100    H    0.24433   0.33422   0.51162   1.000
    H101    H    0.00698   0.20227   0.51882   1.000
    H102    H    0.01096   0.19799   0.37853   1.000
    H103    H    0.12047   0.15514   0.62617   1.000
    H104    H    0.12693   0.40601   0.74931   1.000
    H105    H    0.13047   0.39584   0.61067   1.000
    H106    H    0.24429   0.37222   0.18174   1.000
    H107    H    0.24432   0.51162   0.16578   1.000
    H108    H    0.00697   0.51882   0.29773   1.000
    H109    H    0.01095   0.37853   0.30200   1.000
    H110    H    0.12046   0.62617   0.34480   1.000
    H111    H    0.12693   0.74932   0.09399   1.000
    H112    H    0.13047   0.61067   0.10415   1.000
    H113    H    0.24429   0.12778   0.31825   1.000
    H114    H    0.24432   0.98838   0.33421   1.000
    H115    H    0.00697   0.98119   0.20227   1.000
    H116    H    0.01096   0.12147   0.19799   1.000
    H117    H    0.12047   0.87383   0.15514   1.000
    H118    H    0.12693   0.75069   0.40600   1.000
    H119    H    0.13047   0.88933   0.39584   1.000
    C120    C    0.80848   0.79541   0.90680   1.000
    C121    C    0.80844   0.80334   0.98429   1.000
    C122    C    0.87456   0.76904   0.02695   1.000
    C123    C    0.93962   0.72904   0.98829   1.000
    C124    C    0.93734   0.72575   0.91051   1.000
    C125    C    0.87542   0.77434   0.10961   1.000
    C126    C    0.87848   0.71007   0.15305   1.000
    C127    C    0.87716   0.71396   0.23220   1.000
    C128    C    0.12152   0.21006   0.65305   1.000
    C129    C    0.12289   0.21395   0.73222   1.000
    C130    C    0.12579   0.35120   0.72222   1.000
    C131    C    0.12799   0.34553   0.64534   1.000
    C132    C    0.19154   0.40680   0.20460   1.000
    C133    C    0.87423   0.85120   0.22221   1.000
    C134    C    0.87201   0.84554   0.14534   1.000
    C135    C    0.80847   0.70461   0.59319   1.000
    C136    C    0.80845   0.69666   0.51571   1.000
    C137    C    0.87456   0.73097   0.47304   1.000
    C138    C    0.93962   0.77096   0.51170   1.000
    C139    C    0.93734   0.77427   0.58949   1.000
    C140    C    0.87539   0.72567   0.39038   1.000
    C141    C    0.87850   0.78994   0.34694   1.000
    C142    C    0.87710   0.78605   0.26778   1.000
    C143    C    0.87422   0.64881   0.27778   1.000
    C144    C    0.87203   0.65447   0.35465   1.000
    C145    C    0.80847   0.59320   0.79540   1.000
    C146    C    0.80845   0.51572   0.80334   1.000
    C147    C    0.87456   0.47305   0.76903   1.000
    C148    C    0.93963   0.51171   0.72905   1.000
    C149    C    0.93734   0.58949   0.72573   1.000
    C150    C    0.87540   0.39038   0.77433   1.000
    C151    C    0.87850   0.34695   0.71006   1.000
    C152    C    0.87711   0.26778   0.71390   1.000
    C153    C    0.87422   0.27778   0.85100   1.000
    C154    C    0.87203   0.35466   0.84553   1.000
    C155    C    0.80847   0.90681   0.70459   1.000
    C156    C    0.80844   0.98429   0.69666   1.000
    C157    C    0.87457   0.02695   0.73097   1.000
    C158    C    0.93962   0.98830   0.77096   1.000
    C159    C    0.93734   0.91051   0.77426   1.000
    C160    C    0.87542   0.10962   0.72567   1.000
    C161    C    0.87848   0.15305   0.78994   1.000
    C162    C    0.87716   0.23222   0.78605   1.000
    C163    C    0.87424   0.22222   0.64880   1.000
    C164    C    0.87202   0.14534   0.65447   1.000
    C165    C    0.30847   0.79541   0.59320   1.000
    C166    C    0.30843   0.80334   0.51571   1.000
    C167    C    0.37455   0.76904   0.47304   1.000
    C168    C    0.43961   0.72905   0.51171   1.000
    C169    C    0.43733   0.72575   0.58949   1.000
    C170    C    0.37540   0.77434   0.39038   1.000
    C171    C    0.37848   0.71007   0.34695   1.000
    C172    C    0.37712   0.71396   0.26778   1.000
    C173    C    0.37422   0.85120   0.27778   1.000
    C174    C    0.37201   0.84554   0.35465   1.000
    C175    C    0.30846   0.70461   0.90680   1.000
    C176    C    0.30844   0.69666   0.98429   1.000
    C177    C    0.37455   0.73097   0.02695   1.000
    C178    C    0.43962   0.77096   0.98829   1.000
    C179    C    0.43733   0.77427   0.91051   1.000
    C180    C    0.37540   0.72567   0.10962   1.000
    C181    C    0.37848   0.78994   0.15305   1.000
    C182    C    0.37712   0.78605   0.23222   1.000
    C183    C    0.37422   0.64881   0.22221   1.000
    C184    C    0.37201   0.65447   0.14534   1.000
    C185    C    0.30847   0.59320   0.70459   1.000
    C186    C    0.30843   0.51572   0.69667   1.000
    C187    C    0.37456   0.47305   0.73097   1.000
    C188    C    0.43961   0.51171   0.77097   1.000
    C189    C    0.43734   0.58950   0.77425   1.000
    C190    C    0.37540   0.39038   0.72567   1.000
    C191    C    0.37849   0.34695   0.78994   1.000
    C192    C    0.37712   0.26778   0.78605   1.000
    C193    C    0.37422   0.27778   0.64881   1.000
    C194    C    0.37202   0.35466   0.65447   1.000
    C195    C    0.30846   0.90681   0.79500   1.000
    C196    C    0.30844   0.98429   0.80335   1.000
    C197    C    0.37456   0.02696   0.76903   1.000
    C198    C    0.43962   0.98830   0.72905   1.000
    C199    C    0.43733   0.91052   0.72573   1.000
    C200    C    0.37541   0.10962   0.77433   1.000
    C201    C    0.37848   0.15306   0.71006   1.000
    C202    C    0.37713   0.23222   0.71396   1.000
    C203    C    0.37422   0.22222   0.85120   1.000
    C204    C    0.56040   0.27096   0.48829   1.000
    C205    C    0.56268   0.27426   0.41050   1.000
    C206    C    0.62461   0.22567   0.60962   1.000
    C207    C    0.62153   0.28994   0.65305   1.000
    C208    C    0.62289   0.28605   0.73222   1.000
    C209    C    0.62579   0.14881   0.72222   1.000
    C210    C    0.62800   0.15447   0.64534   1.000
    C211    C    0.69155   0.29540   0.09319   1.000
    C212    C    0.69157   0.30334   0.01571   1.000
    C213    C    0.62546   0.26903   0.97300   1.000
    C214    C    0.56039   0.22905   0.01170   1.000
    C215    C    0.56268   0.22574   0.08949   1.000
    C216    C    0.62461   0.27433   0.89038   1.000
    C217    C    0.62153   0.21006   0.84695   1.000
    C218    C    0.62289   0.21396   0.76778   1.000
    C219    C    0.62579   0.35120   0.77778   1.000
    C220    C    0.62800   0.34553   0.85466   1.000
    C221    C    0.69154   0.40680   0.29540   1.000
    C222    C    0.69157   0.48429   0.30330   1.000
    C223    C    0.62545   0.52696   0.26903   1.000
    C224    C    0.56039   0.48829   0.22904   1.000
    C225    C    0.56267   0.41051   0.22570   1.000
    C226    C    0.62460   0.60962   0.27433   1.000
    C227    C    0.62153   0.65306   0.21006   1.000
    C228    C    0.62287   0.73222   0.21395   1.000
    C229    C    0.62578   0.72222   0.35119   1.000
    C230    C    0.62800   0.64535   0.34553   1.000
    C231    C    0.69155   0.09320   0.20459   1.000
    C232    C    0.69157   0.01571   0.19666   1.000
    C233    C    0.62545   0.97305   0.23096   1.000
    C234    C    0.56040   0.01171   0.27095   1.000
    C235    C    0.56268   0.08949   0.27426   1.000
    C236    C    0.62461   0.89038   0.22566   1.000
    C237    C    0.62152   0.84695   0.28993   1.000
    C238    C    0.62290   0.76778   0.28604   1.000
    C239    C    0.62579   0.77779   0.14880   1.000
    C240    C    0.62799   0.85466   0.15446   1.000
    C241    C    0.19154   0.20460   0.09319   1.000
    C242    C    0.19156   0.19666   0.01571   1.000
    C243    C    0.12545   0.23097   0.97300   1.000
    C244    C    0.06038   0.27096   0.01170   1.000
    C245    C    0.06267   0.27426   0.08949   1.000
    C246    C    0.12460   0.22567   0.89038   1.000
    C247    C    0.12152   0.28994   0.84695   1.000
    C248    C    0.12288   0.28605   0.76778   1.000
    C249    C    0.12579   0.14881   0.77778   1.000
    C250    C    0.12799   0.15447   0.85466   1.000
    C251    C    0.19154   0.29541   0.40680   1.000
    C252    C    0.19157   0.30334   0.48428   1.000
    C253    C    0.12545   0.26903   0.52695   1.000
    C254    C    0.06039   0.22904   0.48829   1.000
    C255    C    0.06267   0.22574   0.41051   1.000
    C256    C    0.12461   0.27433   0.60962   1.000
    C257    C    0.19156   0.48429   0.19665   1.000
    C258    C    0.12545   0.52696   0.23090   1.000
    C259    C    0.06038   0.48829   0.27095   1.000
    C260    C    0.06267   0.41051   0.27426   1.000
    C261    C    0.12460   0.60962   0.22566   1.000
    C262    C    0.12152   0.65306   0.28990   1.000
    C263    C    0.12287   0.73222   0.28604   1.000
    C264    C    0.12578   0.72222   0.14880   1.000
    C265    C    0.12799   0.64535   0.15440   1.000
    C266    C    0.19154   0.09320   0.29540   1.000
    C267    C    0.19157   0.01571   0.30333   1.000
    C268    C    0.12544   0.97305   0.26903   1.000
    C269    C    0.06039   0.01171   0.22904   1.000
    C270    C    0.06267   0.08949   0.22574   1.000
    C271    C    0.12460   0.89038   0.27433   1.000
    C272    C    0.12151   0.84695   0.21006   1.000
    C273    C    0.12288   0.76779   0.21395   1.000
    C274    C    0.12578   0.77779   0.35119   1.000
    C275    C    0.12798   0.85466   0.34553   1.000
    N276    N    0.87239   0.75781   0.87035   1.000
    N277    N    0.87240   0.74219   0.62965   1.000
    N278    N    0.87240   0.62966   0.75781   1.000
    N279    N    0.87239   0.87035   0.74220   1.000
    N280    N    0.37238   0.75781   0.62965   1.000
    N281    N    0.37239   0.74220   0.87035   1.000
    N282    N    0.37238   0.62966   0.74220   1.000
    N283    N    0.37239   0.87035   0.75781   1.000
    N284    N    0.62763   0.24220   0.37034   1.000
    N285    N    0.62762   0.25781   0.12965   1.000
    N286    N    0.62762   0.37035   0.25780   1.000
    N287    N    0.62762   0.12965   0.24219   1.000
    N288    N    0.12762   0.24219   0.12965   1.000
    N289    N    0.12762   0.25781   0.37034   1.000
    N290    N    0.12761   0.37035   0.24219   1.000
    N291    N    0.12762   0.12965   0.25780   1.000
loop_
    _geom_bond_atom_site_label_1
    _geom_bond_atom_site_label_2
    _geom_bond_distance
    _geom_bond_site_symmetry_2
    _ccdc_geom_bond_type
    H40    C176      1.08954  1_554   S
    H4     C121      1.08963  1_554   S
    C244   C245      1.39009      .   S
    C244   C243      1.40299  1_554   S
    C244   H90       1.08938  1_554   S
    C214   C215      1.39009      .   S
    C214   C213      1.40300  1_554   S
    C214   H69       1.08938  1_554   S
    C212   C211      1.39011      .   S
    C212   C213      1.40353  1_554   S
    C212   H68       1.08970  1_554   S
    C242   C241      1.39011      .   S
    C242   C243      1.40353  1_554   S
    C242   H89       1.08971  1_554   S
    H5     C123      1.08938  1_554   S
    H41    C178      1.08938  1_554   S
    C177   C180      1.47858      .   S
    C177   C176      1.40305  1_554   S
    C177   C178      1.40264  1_554   S
    C122   C125      1.47840      .   S
    C122   C121      1.40307  1_554   S
    C122   C123      1.40264  1_554   S
    C245   H91       1.09085      .   S
    C245   N288      1.34897      .   S
    C215   H70       1.09085      .   S
    C215   N285      1.34898      .   S
    C211   H67       1.09213      .   S
    C211   N285      1.34960      .   S
    C241   H88       1.09214      .   S
    C241   N288      1.34960      .   S
    H111   C264      1.09142      .   S
    H86    C239      1.09141      .   S
    H87    C240      1.09118      .   S
    H112   C265      1.09028      .   S
    C125   C134      1.42273      .   S
    C125   C126      1.38533      .   S
    C180   C184      1.42267      .   S
    C180   C181      1.38523      .   S
    H9     C134      1.09118      .   S
    H45    C184      1.09118      .   S
    H7     C126      1.09201      .   S
    H43    C181      1.09144      .   S
    N288   Zn2       2.15256      .   S
    N285   Zn1       2.15256      .   S
    C184   C183      1.37610      .   S
    C134   C133      1.37611      .   S
    C264   C265      1.37609      .   S
    C264   C273      1.41965      .   S
    C239   C240      1.37618      .   S
    C239   C228      1.41964      .   S
    C181   C182      1.41488      .   S
    C126   C127      1.41452      .   S
    C265   C261      1.42364      .   S
    C240   C236      1.42269      .   S
    H117   C272      1.09144      .   S
    H78    C227      1.09146      .   S
    H107   C257      1.08965      .   S
    H82    C232      1.08958  1_565   S
    H81    C231      1.09213      .   S
    H106   C132      1.09218      .   S
    C257   C132      1.39018      .   S
    C257   C258      1.40271      .   S
    C232   C231      1.39014      .   S
    C232   C233      1.40315  1_545   S
    H116   C270      1.09149      .   S
    H77    C225      1.09119      .   S
    H115   C269      1.08948  1_565   S
    H76    C224      1.08945      .   S
    C231   N287      1.34961      .   S
    C132   N290      1.34957      .   S
    C227   C228      1.41486      .   S
    C227   C226      1.38524      .   S
    C272   C273      1.41485      .   S
    C272   C271      1.38525      .   S
    C228   C238      1.43468      .   S
    C273   C263      1.43469      .   S
    C183   H44       1.09146      .   S
    C183   C172      1.41967      .   S
    C133   H8        1.09145      .   S
    C133   C142      1.41970      .   S
    C236   C233      1.47849      .   S
    C236   C237      1.38527      .   S
    C261   C258      1.47844      .   S
    C261   C262      1.38480      .   S
    C225   C224      1.39000      .   S
    C225   N286      1.34926      .   S
    C270   C269      1.38999      .   S
    C270   N291      1.34897      .   S
    C269   C268      1.40248  1_545   S
    C224   C223      1.40265      .   S
    C258   C259      1.40322      .   S
    C233   C234      1.40251  1_565   S
    C127   C142      1.43486      .   S
    C127   C143      1.41980      .   S
    C182   C172      1.43470      .   S
    C182   C173      1.41960      .   S
    N287   Zn1       2.15252      .   S
    N287   C235      1.34902      .   S
    N290   Zn2       2.15249      .   S
    N290   C260      1.34897      .   S
    Zn1    N286      2.15249      .   S
    Zn1    N284      2.15237      .   S
    Zn2    N291      2.15251      .   S
    Zn2    N289      2.15237      .   S
    H15    C143      1.09146      .   S
    H37    C173      1.09148      .   S
    N286   C221      1.34960      .   S
    N291   C266      1.34958      .   S
    C172   C171      1.41488      .   S
    C142   C141      1.41472      .   S
    C223   C226      1.47849      .   S
    C223   C222      1.40290      .   S
    C268   C271      1.47851      .   S
    C268   C267      1.40316  1_565   S
    C259   C260      1.38998      .   S
    C259   H108      1.08951      .   S
    C234   C235      1.38998      .   S
    C234   H83       1.08955  1_545   S
    C260   H109      1.09147      .   S
    C235   H84       1.09144      .   S
    C226   C230      1.42270      .   S
    C271   C275      1.42270      .   S
    C173   C174      1.37610      .   S
    C143   C144      1.37610      .   S
    C238   C237      1.41485      .   S
    C238   C229      1.41963      .   S
    C263   C262      1.41482      .   S
    C263   C274      1.41964      .   S
    C262   H110      1.09114      .   S
    C237   H85       1.09066      .   S
    C266   C267      1.39016      .   S
    C266   H113      1.09217      .   S
    C221   C222      1.39010      .   S
    C221   H74       1.09215      .   S
    C222   H75       1.08999      .   S
    C267   H114      1.08958  1_545   S
    C230   C229      1.37617      .   S
    C230   H80       1.09116      .   S
    C275   C274      1.37617      .   S
    C275   H119      1.09117      .   S
    C141   H14       1.09151      .   S
    C141   C140      1.38534      .   S
    C171   H36       1.09145      .   S
    C171   C170      1.38525      .   S
    C229   H79       1.09142      .   S
    C274   H118      1.09141      .   S
    C144   H16       1.09119      .   S
    C144   C140      1.42273      .   S
    C174   H38       1.09127      .   S
    C174   C170      1.42273      .   S
    N289   C251      1.34961      .   S
    N289   C255      1.34908      .   S
    N284   C97       1.34960      .   S
    N284   C205      1.34899      .   S
    H60    C97       1.09214      .   S
    H95    C251      1.09214      .   S
    H63    C205      1.09141      .   S
    H102   C255      1.09150      .   S
    C170   C167      1.47840      .   S
    C140   C137      1.47840      .   S
    C97    C98       1.39009      .   S
    C251   C252      1.39009      .   S
    C205   C204      1.39008      .   S
    C255   C254      1.38990      .   S
    C167   C168      1.40270      .   S
    C167   C166      1.40319      .   S
    C137   C138      1.40261      .   S
    C137   C136      1.40318      .   S
    H12    C138      1.08941      .   S
    H34    C168      1.08950      .   S
    C252   H100      1.08975      .   S
    C252   C253      1.40319      .   S
    C98    H61       1.08976      .   S
    C98    C99       1.40320      .   S
    C204   H62       1.08951      .   S
    C204   C99       1.40261      .   S
    C254   H101      1.08951      .   S
    C254   C253      1.40262      .   S
    H33    C166      1.08969      .   S
    H11    C136      1.08968      .   S
    C138   C139      1.39009      .   S
    C168   C169      1.38990      .   S
    C166   C165      1.39027      .   S
    C136   C135      1.39011      .   S
    C253   C256      1.47858      .   S
    C99    C206      1.47858      .   S
    C169   H35       1.09149      .   S
    C169   N280      1.34900      .   S
    C139   H13       1.09150      .   S
    C139   N277      1.34897      .   S
    C135   H10       1.09223      .   S
    C135   N277      1.34960      .   S
    C165   H32       1.09214      .   S
    C165   N280      1.34952      .   S
    H51    C193      1.09155      .   S
    H30    C163      1.09141      .   S
    H31    C164      1.09117      .   S
    H52    C194      1.09118      .   S
    C256   C131      1.42265      .   S
    C256   C128      1.38523      .   S
    C206   C210      1.42265      .   S
    C206   C207      1.38523      .   S
    H66    C210      1.09117      .   S
    H105   C131      1.09117      .   S
    H103   C128      1.09145      .   S
    H64    C207      1.09145      .   S
    N280   Zn0       2.15255      .   S
    N277   Zn28      2.15256      .   S
    C210   C209      1.37628      .   S
    C131   C130      1.37628      .   S
    C163   C164      1.37619      .   S
    C163   C152      1.41889      .   S
    C193   C194      1.37619      .   S
    C193   C202      1.41961      .   S
    C128   C129      1.41489      .   S
    C207   C208      1.41488      .   S
    C164   C160      1.42271      .   S
    C194   C190      1.42270      .   S
    H57    C201      1.09148      .   S
    H21    C151      1.09146      .   S
    H25    C156      1.08956  1_545   S
    H47    C186      1.08976      .   S
    H46    C185      1.09214      .   S
    H24    C155      1.09211      .   S
    H56    C199      1.16316      .   S
    C156   C155      1.39016      .   S
    C156   C157      1.40327  1_565   S
    C186   C185      1.39018      .   S
    C186   C187      1.40320      .   S
    H20    C149      1.09148      .   S
    H19    C148      1.08952      .   S
    H55    C198      1.08950  1_545   S
    C155   N279      1.34963      .   S
    C185   N282      1.34956      .   S
    C151   C152      1.41481      .   S
    C151   C150      1.38526      .   S
    C201   C202      1.41485      .   S
    C201   C200      1.38526      .   S
    C152   C162      1.43564      .   S
    C202   C192      1.43468      .   S
    C130   H104      1.09138      .   S
    C130   C248      1.41961      .   S
    C209   H65       1.09138      .   S
    C209   C218      1.41960      .   S
    C190   C187      1.47851      .   S
    C190   C191      1.38525      .   S
    C160   C157      1.47849      .   S
    C160   C161      1.38524      .   S
    C199   C198      1.38999      .   S
    C199   N283      1.34900      .   S
    C149   C148      1.38999      .   S
    C149   N278      1.34905      .   S
    C148   C147      1.40259      .   S
    C198   C197      1.40251  1_565   S
    C157   C158      1.40247  1_545   S
    C187   C188      1.40263      .   S
    C208   C218      1.43470      .   S
    C208   C219      1.41959      .   S
    C129   C248      1.43470      .   S
    C129   C249      1.41958      .   S
    N279   Zn28      2.15249      .   S
    N279   C159      1.34901      .   S
    N282   Zn0       2.15249      .   S
    N282   C189      1.34899      .   S
    Zn0    N283      2.15251      .   S
    Zn0    N281      2.15256      .   S
    Zn28   N278      2.15250      .   S
    Zn28   N276      2.15255      .   S
    H93    C249      1.09208      .   S
    H72    C219      1.09208      .   S
    N283   C195      1.34611      .   S
    N278   C145      1.34959      .   S
    C248   C247      1.41488      .   S
    C218   C217      1.41489      .   S
    C147   C150      1.47851      .   S
    C147   C146      1.40317      .   S
    C197   C200      1.47849      .   S
    C197   C196      1.40323  1_545   S
    C158   C159      1.38997      .   S
    C158   H26       1.08949  1_565   S
    C188   C189      1.38999      .   S
    C188   H48       1.08941      .   S
    C189   H49       1.09150      .   S
    C159   H27       1.09148      .   S
    C200   C96       1.42267      .   S
    C150   C154      1.42267      .   S
    C219   C220      1.37628      .   S
    C249   C250      1.37628      .   S
    C192   C191      1.41485      .   S
    C192   C203      1.41966      .   S
    C162   C161      1.41486      .   S
    C162   C153      1.41673      .   S
    C191   H50       1.09144      .   S
    C161   H29       1.09146      .   S
    C195   C196      1.39089      .   S
    C195   H53       1.09442      .   S
    C145   C146      1.39016      .   S
    C145   H17       1.09210      .   S
    C146   H18       1.08975      .   S
    C196   H54       1.08956  1_565   S
    C96    C203      1.37620      .   S
    C96    H59       1.09055      .   S
    C154   C153      1.37594      .   S
    C154   H23       1.09117      .   S
    C217   H71       1.09144      .   S
    C217   C216      1.38524      .   S
    C247   H92       1.09144      .   S
    C247   C246      1.38524      .   S
    C153   H22       1.09461      .   S
    C203   H58       1.09143      .   S
    C220   H73       1.09118      .   S
    C220   C216      1.42267      .   S
    C250   H94       1.09118      .   S
    C250   C246      1.42265      .   S
    N281   C175      1.34950      .   S
    N281   C179      1.34897      .   S
    N276   C120      1.34953      .   S
    N276   C124      1.34897      .   S
    H39    C175      1.09214      .   S
    H3     C120      1.09215      .   S
    H6     C124      1.09151      .   S
    H42    C179      1.09150      .   S
    C246   C243      1.47769      .   S
    C216   C213      1.47769      .   S
    C120   C121      1.39027      .   S
    C175   C176      1.39030      .   S
    C124   C123      1.38990      .   S
    C179   C178      1.38991      .   S
