# CIF file generated by openbabel 2.4.90, see http://openbabel.sf.net
data_I
_chemical_name_common ''
_cell_length_a 15.23
_cell_length_b 17.848
_cell_length_c 17.848
_cell_angle_alpha 90
_cell_angle_beta 90
_cell_angle_gamma 89.999
_space_group_name_H-M_alt 'P 1'
_space_group_name_Hall 'P 1'
loop_
    _symmetry_equiv_pos_as_xyz
    x,y,z
loop_
    _atom_site_label
    _atom_site_type_symbol
    _atom_site_fract_x
    _atom_site_fract_y
    _atom_site_fract_z
    _atom_site_occupancy
    Zr0     Zr   0.87161   0.75000   0.75000   1.000
    Zr1     Zr   0.37160   0.75001   0.75000   1.000
    Zr2     Zr   0.62841   0.25000   0.25000   1.000
    Zr3     Zr   0.12840   0.25000   0.25000   1.000
    N4      N    0.62592   0.25000   0.74999   1.000
    O5      O    0.62697   0.24805   0.53008   1.000
    O6      O    0.62697   0.25195   0.96991   1.000
    N7      N    0.87410   0.25000   0.74999   1.000
    O8      O    0.87305   0.46992   0.75195   1.000
    O9      O    0.87305   0.03009   0.74805   1.000
    N10     N    0.12591   0.25000   0.74999   1.000
    O11     O    0.12696   0.24805   0.96991   1.000
    O12     O    0.12696   0.25195   0.53008   1.000
    N13     N    0.62592   0.75000   0.24999   1.000
    O14     O    0.62697   0.53009   0.25195   1.000
    O15     O    0.62697   0.96991   0.24804   1.000
    N16     N    0.37409   0.25000   0.74977   1.000
    O17     O    0.37304   0.46992   0.74793   1.000
    O18     O    0.37304   0.03009   0.75184   1.000
    N19     N    0.12591   0.75000   0.24999   1.000
    O20     O    0.12696   0.96992   0.25194   1.000
    O21     O    0.12696   0.53009   0.24804   1.000
    N22     N    0.37409   0.75000   0.25000   1.000
    O23     O    0.37304   0.75196   0.46991   1.000
    O24     O    0.37304   0.74805   0.03009   1.000
    N25     N    0.87410   0.75000   0.24999   1.000
    O26     O    0.87305   0.75196   0.03008   1.000
    O27     O    0.87305   0.74805   0.46991   1.000
loop_
    _geom_bond_atom_site_label_1
    _geom_bond_atom_site_label_2
    _geom_bond_distance
    _geom_bond_site_symmetry_2
    _ccdc_geom_bond_type
    N4     O5        3.92516      .   S
    Zr2    O5        4.99906      .   S
    N4     O6        3.92525      .   S
    Zr2    O6        4.99924  1_554   S
    N7     O8        3.92522      .   S
    Zr0    O8        4.99918      .   S
    N7     O9        3.92517      .   S
    Zr0    O9        4.99913  1_565   S
    N10    O11       3.92525      .   S
    Zr3    O11       4.99924  1_554   S
    N10    O12       3.92517      .   S
    Zr3    O12       4.99906      .   S
    N13    O14       3.92521      .   S
    Zr2    O14       4.99917      .   S
    N13    O15       3.92518      .   S
    Zr2    O15       4.99915  1_545   S
    N16    O17       3.92520      .   S
    Zr1    O17       4.99919      .   S
    N16    O18       3.92520      .   S
    Zr1    O18       4.99913  1_565   S
    N19    O20       3.92519      .   S
    Zr3    O20       4.99916  1_545   S
    N19    O21       3.92521      .   S
    Zr3    O21       4.99916      .   S
    N22    O23       3.92520      .   S
    Zr1    O23       4.99919      .   S
    N22    O24       3.92517      .   S
    Zr1    O24       4.99915  1_556   S
    N25    O26       3.92514      .   S
    Zr0    O26       4.99912  1_556   S
    N25    O27       3.92523      .   S
    Zr0    O27       4.99922      .   S
