# CIF file generated by openbabel 2.4.90, see http://openbabel.sf.net
data_I
_chemical_name_common ''
_cell_length_a 14.239
_cell_length_b 12.96
_cell_length_c 12.96
_cell_angle_alpha 97.779
_cell_angle_beta 96.299
_cell_angle_gamma 83.691
_space_group_name_H-M_alt 'P 1'
_space_group_name_Hall 'P 1'
loop_
    _symmetry_equiv_pos_as_xyz
    x,y,z
loop_
    _atom_site_label
    _atom_site_type_symbol
    _atom_site_fract_x
    _atom_site_fract_y
    _atom_site_fract_z
    _atom_site_occupancy
    Cd0     Cd   0.95370   0.34287   0.06437   1.000
    Cd1     Cd   0.29627   0.06443   0.34290   1.000
    Cd2     Cd   0.79639   0.06438   0.34285   1.000
    Cd3     Cd   0.04632   0.65716   0.93564   1.000
    Cd4     Cd   0.54631   0.65712   0.93556   1.000
    Cd5     Cd   0.20363   0.93566   0.65716   1.000
    Cd6     Cd   0.70376   0.93561   0.65704   1.000
    Cd7     Cd   0.45372   0.34292   0.06445   1.000
    Ts8     Ts   0.00119   0.35572   0.05127   1.000
    Ts9     Ts   0.92217   0.39583   0.07412   1.000
    Ts10    Ts   0.96913   0.32943   0.11592   1.000
    Ts11    Ts   0.93528   0.33373   0.00985   1.000
    Ts12    Ts   0.24878   0.05135   0.35579   1.000
    Ts13    Ts   0.28086   0.11597   0.32944   1.000
    Ts14    Ts   0.31469   0.00990   0.33379   1.000
    Ts15    Ts   0.32781   0.07416   0.39587   1.000
    Ts16    Ts   0.74890   0.05130   0.35571   1.000
    Ts17    Ts   0.78098   0.11594   0.32940   1.000
    Ts18    Ts   0.81481   0.00985   0.33375   1.000
    Ts19    Ts   0.82796   0.07410   0.39578   1.000
    Ts20    Ts   0.07785   0.60421   0.92589   1.000
    Ts21    Ts   0.03088   0.67061   0.88409   1.000
    Ts22    Ts   0.06474   0.66630   0.99016   1.000
    Ts23    Ts   0.99884   0.64432   0.94874   1.000
    Ts24    Ts   0.57788   0.60418   0.92586   1.000
    Ts25    Ts   0.53089   0.67060   0.88402   1.000
    Ts26    Ts   0.56472   0.66623   0.99009   1.000
    Ts27    Ts   0.49882   0.64424   0.94864   1.000
    Ts28    Ts   0.21904   0.88410   0.67061   1.000
    Ts29    Ts   0.18521   0.99018   0.66626   1.000
    Ts30    Ts   0.17207   0.92594   0.60423   1.000
    Ts31    Ts   0.25113   0.94874   0.64430   1.000
    Ts32    Ts   0.71917   0.88406   0.67053   1.000
    Ts33    Ts   0.68534   0.99013   0.66616   1.000
    Ts34    Ts   0.67221   0.92587   0.60409   1.000
    Ts35    Ts   0.75124   0.94869   0.64416   1.000
    Ts36    Ts   0.50121   0.35580   0.05137   1.000
    Ts37    Ts   0.42214   0.39586   0.07415   1.000
    Ts38    Ts   0.46914   0.32944   0.11599   1.000
    Ts39    Ts   0.43530   0.33380   0.00990   1.000
loop_
    _geom_bond_atom_site_label_1
    _geom_bond_atom_site_label_2
    _geom_bond_distance
    _geom_bond_site_symmetry_2
    _ccdc_geom_bond_type
    Cd0    Ts8       0.75583  1_655   S
    Cd0    Ts9       0.78092      .   S
    Cd0    Ts10      0.71826      .   S
    Cd0    Ts11      0.72502      .   S
    Cd1    Ts12      0.75601      .   S
    Cd1    Ts13      0.71819      .   S
    Cd1    Ts14      0.72496      .   S
    Cd1    Ts15      0.78116      .   S
    Cd2    Ts16      0.75596      .   S
    Cd2    Ts17      0.71827      .   S
    Cd2    Ts18      0.72496      .   S
    Cd2    Ts19      0.78094      .   S
    Cd3    Ts20      0.78092      .   S
    Cd3    Ts21      0.71831      .   S
    Cd3    Ts22      0.72502      .   S
    Cd3    Ts23      0.75583  1_455   S
    Cd4    Ts24      0.78098      .   S
    Cd4    Ts25      0.71828      .   S
    Cd4    Ts26      0.72500      .   S
    Cd4    Ts27      0.75594      .   S
    Cd5    Ts28      0.71827      .   S
    Cd5    Ts29      0.72496      .   S
    Cd5    Ts30      0.78094      .   S
    Cd5    Ts31      0.75596      .   S
    Cd6    Ts32      0.71829      .   S
    Cd6    Ts33      0.72496      .   S
    Cd6    Ts34      0.78096      .   S
    Cd6    Ts35      0.75596      .   S
    Cd7    Ts36      0.75594      .   S
    Cd7    Ts37      0.78098      .   S
    Cd7    Ts38      0.71829      .   S
    Cd7    Ts39      0.72528      .   S
