# CIF file generated by openbabel 2.4.90, see http://openbabel.sf.net
data_I
_chemical_name_common ''
_cell_length_a 14.239
_cell_length_b 12.96
_cell_length_c 12.96
_cell_angle_alpha 97.779
_cell_angle_beta 96.299
_cell_angle_gamma 83.691
_space_group_name_H-M_alt 'P 1'
_space_group_name_Hall 'P 1'
loop_
    _symmetry_equiv_pos_as_xyz
    x,y,z
loop_
    _atom_site_label
    _atom_site_type_symbol
    _atom_site_fract_x
    _atom_site_fract_y
    _atom_site_fract_z
    _atom_site_occupancy
    C0      C    0.45372   0.34292   0.06445   1.000
    C1      C    0.95370   0.34287   0.06437   1.000
    C2      C    0.29627   0.06443   0.34290   1.000
    C3      C    0.79639   0.06438   0.34285   1.000
    C4      C    0.04632   0.65716   0.93564   1.000
    C5      C    0.54631   0.65712   0.93556   1.000
    C6      C    0.20363   0.93566   0.65716   1.000
    C7      C    0.70376   0.93561   0.65704   1.000
    C8      C    0.22646   0.41209   0.53515   1.000
    C9      C    0.72650   0.41208   0.53520   1.000
    C10     C    0.02361   0.53521   0.41207   1.000
    C11     C    0.52347   0.53522   0.41204   1.000
    C12     C    0.27352   0.58796   0.46481   1.000
    C13     C    0.77356   0.58795   0.46486   1.000
    C14     C    0.47655   0.46482   0.58797   1.000
    C15     C    0.97642   0.46482   0.58794   1.000
    C16     C    0.21974   0.52545   0.66635   1.000
    C17     C    0.71980   0.52545   0.66639   1.000
    C18     C    0.18970   0.34811   0.66556   1.000
    C19     C    0.68976   0.34811   0.66561   1.000
    C20     C    0.17090   0.46891   0.80880   1.000
    C21     C    0.67101   0.46890   0.80886   1.000
    C22     C    0.24777   0.69287   0.66018   1.000
    C23     C    0.74787   0.69285   0.66020   1.000
    C24     C    0.16624   0.17570   0.65260   1.000
    C25     C    0.66630   0.17568   0.65260   1.000
    C26     C    0.11852   0.43042   0.96284   1.000
    C27     C    0.61859   0.43048   0.96290   1.000
    C28     C    0.03024   0.66640   0.52546   1.000
    C29     C    0.53025   0.66641   0.52540   1.000
    C30     C    0.06034   0.66565   0.34813   1.000
    C31     C    0.56025   0.66560   0.34800   1.000
    C32     C    0.07900   0.80889   0.46895   1.000
    C33     C    0.57912   0.80882   0.46883   1.000
    C34     C    0.50218   0.66025   0.69282   1.000
    C35     C    0.00000   0.66020   0.69286   1.000
    C36     C    0.08380   0.65271   0.17570   1.000
    C37     C    0.58371   0.65260   0.17562   1.000
    C38     C    0.13139   0.96296   0.43053   1.000
    C39     C    0.63153   0.96287   0.43036   1.000
    C40     C    0.28022   0.47459   0.33362   1.000
    C41     C    0.78029   0.47458   0.33366   1.000
    C42     C    0.31027   0.65192   0.33440   1.000
    C43     C    0.81032   0.65192   0.33445   1.000
    C44     C    0.32902   0.53113   0.19115   1.000
    C45     C    0.82912   0.53113   0.19121   1.000
    C46     C    0.25216   0.30718   0.33981   1.000
    C47     C    0.75226   0.30717   0.33983   1.000
    C48     C    0.33372   0.82436   0.34741   1.000
    C49     C    0.83378   0.82434   0.34741   1.000
    C50     C    0.38143   0.56955   0.03707   1.000
    C51     C    0.88150   0.56962   0.03717   1.000
    C52     C    0.46977   0.33363   0.47460   1.000
    C53     C    0.96979   0.33364   0.47455   1.000
    C54     C    0.43976   0.33444   0.65196   1.000
    C55     C    0.93969   0.33438   0.65188   1.000
    C56     C    0.42090   0.19122   0.53117   1.000
    C57     C    0.92103   0.19114   0.53106   1.000
    C58     C    0.99784   0.33984   0.30715   1.000
    C59     C    0.49785   0.33978   0.30719   1.000
    C60     C    0.41631   0.34744   0.82439   1.000
    C61     C    0.91623   0.34733   0.82431   1.000
    C62     C    0.36849   0.03716   0.56965   1.000
    C63     C    0.86863   0.03708   0.56948   1.000
    C64     C    0.21407   0.42653   0.61375   1.000
    C65     C    0.71412   0.42652   0.61380   1.000
    C66     C    0.16968   0.36855   0.76508   1.000
    C67     C    0.66978   0.36854   0.76514   1.000
    C68     C    0.19711   0.54844   0.76416   1.000
    C69     C    0.69717   0.54845   0.76420   1.000
    C70     C    0.24846   0.59771   0.61286   1.000
    C71     C    0.74852   0.59769   0.61289   1.000
    C72     C    0.24987   0.78098   0.69750   1.000
    C73     C    0.75000   0.78097   0.69750   1.000
    C74     C    0.18454   0.25398   0.60855   1.000
    C75     C    0.68453   0.25400   0.60857   1.000
    C76     C    0.14838   0.09924   0.68447   1.000
    C77     C    0.64850   0.09918   0.68440   1.000
    C78     C    0.14092   0.49829   0.90640   1.000
    C79     C    0.64104   0.49830   0.90647   1.000
    C80     C    0.09616   0.38140   0.02506   1.000
    C81     C    0.59618   0.38156   0.02521   1.000
    C82     C    0.03599   0.61381   0.42653   1.000
    C83     C    0.53586   0.61381   0.42646   1.000
    C84     C    0.08027   0.76519   0.36858   1.000
    C85     C    0.58031   0.76510   0.36847   1.000
    C86     C    0.05279   0.76423   0.54846   1.000
    C87     C    0.55294   0.76419   0.54839   1.000
    C88     C    0.50151   0.61293   0.59766   1.000
    C89     C    0.00000   0.61288   0.59700   1.000
    C90     C    0.50005   0.69756   0.78093   1.000
    C91     C    0.00000   0.69750   0.78098   1.000
    C92     C    0.06559   0.60865   0.25401   1.000
    C93     C    0.56544   0.60857   0.25392   1.000
    C94     C    0.10159   0.68458   0.09921   1.000
    C95     C    0.60155   0.68446   0.09914   1.000
    C96     C    0.10894   0.90651   0.49836   1.000
    C97     C    0.60913   0.90641   0.49820   1.000
    C98     C    0.15380   0.02518   0.38157   1.000
    C99     C    0.65391   0.02513   0.38142   1.000
    C100    C    0.28591   0.57351   0.38621   1.000
    C101    C    0.78596   0.57351   0.38626   1.000
    C102    C    0.33024   0.63150   0.23480   1.000
    C103    C    0.83035   0.63149   0.23493   1.000
    C104    C    0.30285   0.45159   0.23581   1.000
    C105    C    0.80292   0.45159   0.23585   1.000
    C106    C    0.25150   0.40234   0.38712   1.000
    C107    C    0.75157   0.40233   0.38715   1.000
    C108    C    0.25003   0.21907   0.30251   1.000
    C109    C    0.75015   0.21905   0.30251   1.000
    C110    C    0.31549   0.74604   0.39140   1.000
    C111    C    0.81549   0.74606   0.39146   1.000
    C112    C    0.35153   0.90085   0.31556   1.000
    C113    C    0.85164   0.90080   0.31554   1.000
    C114    C    0.35899   0.50173   0.09354   1.000
    C115    C    0.85911   0.50174   0.09361   1.000
    C116    C    0.40384   0.61847   0.97480   1.000
    C117    C    0.90387   0.61863   0.97495   1.000
    C118    C    0.46416   0.38622   0.57354   1.000
    C119    C    0.96403   0.38623   0.57340   1.000
    C120    C    0.41973   0.23494   0.63154   1.000
    C121    C    0.91975   0.23484   0.63143   1.000
    C122    C    0.44709   0.23584   0.45162   1.000
    C123    C    0.94723   0.23581   0.45150   1.000
    C124    C    0.99848   0.38716   0.40231   1.000
    C125    C    0.49852   0.38710   0.40235   1.000
    C126    C    0.99997   0.30254   0.21903   1.000
    C127    C    0.49998   0.30248   0.21908   1.000
    C128    C    0.43459   0.39147   0.74609   1.000
    C129    C    0.93443   0.39139   0.74600   1.000
    C130    C    0.39848   0.31557   0.90080   1.000
    C131    C    0.89843   0.31545   0.90080   1.000
    C132    C    0.39090   0.09363   0.50180   1.000
    C133    C    0.89109   0.09353   0.50165   1.000
    C134    C    0.34612   0.97491   0.61859   1.000
    C135    C    0.84622   0.97485   0.61840   1.000
    O136    O    0.02493   0.36214   0.04471   1.000
    O137    O    0.10734   0.40591   0.99395   1.000
    O138    O    0.52495   0.36224   0.04483   1.000
    O139    O    0.60739   0.40602   0.99405   1.000
    O140    O    0.37021   0.53564   0.06530   1.000
    O141    O    0.39264   0.59401   0.00593   1.000
    O142    O    0.87031   0.53568   0.06539   1.000
    O143    O    0.89269   0.59413   0.00606   1.000
    O144    O    0.90641   0.42231   0.07899   1.000
    O145    O    0.97684   0.32270   0.14170   1.000
    O146    O    0.92607   0.32916   0.98258   1.000
    O147    O    0.40635   0.42233   0.07899   1.000
    O148    O    0.47685   0.32270   0.14176   1.000
    O149    O    0.42610   0.32925   0.98262   1.000
    O150    O    0.34400   0.51643   0.14234   1.000
    O151    O    0.84411   0.51644   0.14241   1.000
    O152    O    0.59263   0.66853   0.13738   1.000
    O153    O    0.57393   0.67079   0.01735   1.000
    O154    O    0.09269   0.66865   0.13745   1.000
    O155    O    0.07396   0.67087   0.01742   1.000
    O156    O    0.57458   0.63058   0.21477   1.000
    O157    O    0.07469   0.63068   0.21485   1.000
    O158    O    0.32963   0.58132   0.21297   1.000
    O159    O    0.31593   0.49136   0.21348   1.000
    O160    O    0.82973   0.58131   0.21307   1.000
    O161    O    0.81602   0.49136   0.21353   1.000
    O162    O    0.99890   0.32119   0.26309   1.000
    O163    O    0.49891   0.32113   0.26314   1.000
    O164    O    0.32025   0.64171   0.28460   1.000
    O165    O    0.82033   0.64171   0.28469   1.000
    O166    O    0.29154   0.46309   0.28471   1.000
    O167    O    0.79160   0.46309   0.28475   1.000
    O168    O    0.56285   0.63708   0.30096   1.000
    O169    O    0.06297   0.63715   0.30107   1.000
    O170    O    0.25109   0.26312   0.32116   1.000
    O171    O    0.27315   0.14175   0.32270   1.000
    O172    O    0.75120   0.26311   0.32117   1.000
    O173    O    0.77327   0.14172   0.32268   1.000
    O174    O    0.99816   0.36350   0.35473   1.000
    O175    O    0.49818   0.36344   0.35477   1.000
    O176    O    0.82402   0.98259   0.32919   1.000
    O177    O    0.84271   0.86257   0.33147   1.000
    O178    O    0.32390   0.98264   0.32923   1.000
    O179    O    0.34262   0.86260   0.33148   1.000
    O180    O    0.28307   0.52405   0.35991   1.000
    O181    O    0.26586   0.43847   0.36037   1.000
    O182    O    0.78312   0.52404   0.35996   1.000
    O183    O    0.76593   0.43846   0.36041   1.000
    O184    O    0.29809   0.61272   0.36030   1.000
    O185    O    0.31288   0.69898   0.36290   1.000
    O186    O    0.79814   0.61272   0.36036   1.000
    O187    O    0.81290   0.69899   0.36295   1.000
    O188    O    0.25183   0.35476   0.36346   1.000
    O189    O    0.75191   0.35475   0.36349   1.000
    O190    O    0.72515   0.04475   0.36213   1.000
    O191    O    0.84374   0.07896   0.42225   1.000
    O192    O    0.22504   0.04480   0.36223   1.000
    O193    O    0.34359   0.07903   0.42235   1.000
    O194    O    0.32461   0.78520   0.36940   1.000
    O195    O    0.82463   0.78520   0.36943   1.000
    O196    O    0.57028   0.71535   0.35823   1.000
    O197    O    0.54806   0.63970   0.38723   1.000
    O198    O    0.07030   0.71542   0.35835   1.000
    O199    O    0.04817   0.63973   0.38733   1.000
    O200    O    0.57971   0.78696   0.41865   1.000
    O201    O    0.07963   0.78704   0.41876   1.000
    O202    O    0.64272   0.99400   0.40589   1.000
    O203    O    0.14260   0.99407   0.40605   1.000
    O204    O    0.27972   0.58074   0.42551   1.000
    O205    O    0.77976   0.58073   0.42556   1.000
    O206    O    0.98414   0.36040   0.43843   1.000
    O207    O    0.48414   0.36036   0.43848   1.000
    O208    O    0.52967   0.57452   0.41925   1.000
    O209    O    0.02980   0.57451   0.41930   1.000
    O210    O    0.53305   0.64011   0.47593   1.000
    O211    O    0.03311   0.64010   0.47599   1.000
    O212    O    0.62033   0.93464   0.46428   1.000
    O213    O    0.12017   0.93473   0.46444   1.000
    O214    O    0.95851   0.28472   0.46302   1.000
    O215    O    0.93413   0.21348   0.49128   1.000
    O216    O    0.45843   0.28473   0.46311   1.000
    O217    O    0.43400   0.21353   0.49139   1.000
    O218    O    0.59412   0.85761   0.48351   1.000
    O219    O    0.56603   0.78651   0.50861   1.000
    O220    O    0.09397   0.85770   0.48365   1.000
    O221    O    0.06589   0.78656   0.50870   1.000
    O222    O    0.96691   0.35993   0.52397   1.000
    O223    O    0.46696   0.35993   0.52407   1.000
    O224    O    0.65644   0.92101   0.57762   1.000
    O225    O    0.15628   0.92108   0.57776   1.000
    O226    O    0.90606   0.14234   0.51635   1.000
    O227    O    0.87986   0.06531   0.53556   1.000
    O228    O    0.40590   0.14242   0.51648   1.000
    O229    O    0.37970   0.06539   0.53572   1.000
    O230    O    0.54159   0.71530   0.53689   1.000
    O231    O    0.51588   0.63967   0.56153   1.000
    O232    O    0.04151   0.71531   0.53696   1.000
    O233    O    0.01512   0.63964   0.56123   1.000
    O234    O    0.92039   0.21299   0.58125   1.000
    O235    O    0.42031   0.21308   0.58135   1.000
    O236    O    0.22027   0.41931   0.57445   1.000
    O237    O    0.72031   0.41930   0.57450   1.000
    O238    O    0.85743   0.00597   0.59394   1.000
    O239    O    0.35731   0.00604   0.59412   1.000
    O240    O    0.97023   0.42552   0.58067   1.000
    O241    O    0.95186   0.36030   0.61264   1.000
    O242    O    0.47036   0.42552   0.58076   1.000
    O243    O    0.45196   0.36033   0.61275   1.000
    O244    O    0.00000   0.63654   0.64493   1.000
    O245    O    0.50184   0.63659   0.64524   1.000
    O246    O    0.17539   0.21484   0.63057   1.000
    O247    O    0.18712   0.30105   0.63706   1.000
    O248    O    0.67542   0.21484   0.63058   1.000
    O249    O    0.68714   0.30106   0.63709   1.000
    O250    O    0.24811   0.64529   0.63652   1.000
    O251    O    0.23410   0.56158   0.63960   1.000
    O252    O    0.74820   0.64527   0.63654   1.000
    O253    O    0.73416   0.56157   0.63964   1.000
    O254    O    0.20189   0.38732   0.63965   1.000
    O255    O    0.21690   0.47599   0.64005   1.000
    O256    O    0.70194   0.38732   0.63970   1.000
    O257    O    0.71696   0.47598   0.64009   1.000
    O258    O    0.77499   0.95523   0.63772   1.000
    O259    O    0.27487   0.95528   0.63787   1.000
    O260    O    0.92972   0.28461   0.64165   1.000
    O261    O    0.42974   0.28469   0.64175   1.000
    O262    O    0.93706   0.36288   0.69894   1.000
    O263    O    0.43717   0.36296   0.69902   1.000
    O264    O    0.15731   0.13747   0.66853   1.000
    O265    O    0.65740   0.13743   0.66850   1.000
    O266    O    0.67613   0.01739   0.67072   1.000
    O267    O    0.72688   0.85829   0.67727   1.000
    O268    O    0.17600   0.01745   0.67081   1.000
    O269    O    0.22675   0.85832   0.67733   1.000
    O270    O    0.24882   0.73693   0.67884   1.000
    O271    O    0.74893   0.73691   0.67885   1.000
    O272    O    0.17969   0.35833   0.71532   1.000
    O273    O    0.67977   0.35833   0.71537   1.000
    O274    O    0.20842   0.53695   0.71525   1.000
    O275    O    0.70849   0.53695   0.71530   1.000
    O276    O    0.50111   0.67890   0.73687   1.000
    O277    O    0.00000   0.67885   0.73692   1.000
    O278    O    0.92533   0.36936   0.78515   1.000
    O279    O    0.42545   0.36945   0.78524   1.000
    O280    O    0.18401   0.50867   0.78648   1.000
    O281    O    0.68409   0.50867   0.78653   1.000
    O282    O    0.17029   0.41873   0.78694   1.000
    O283    O    0.67040   0.41872   0.78700   1.000
    O284    O    0.52318   0.67734   0.85824   1.000
    O285    O    0.02316   0.67733   0.85831   1.000
    O286    O    0.15591   0.48360   0.85760   1.000
    O287    O    0.65602   0.48360   0.85766   1.000
    O288    O    0.90733   0.33139   0.86255   1.000
    O289    O    0.40739   0.33151   0.86260   1.000
    O290    O    0.09362   0.57773   0.92102   1.000
    O291    O    0.12972   0.46435   0.93462   1.000
    O292    O    0.59367   0.57771   0.92101   1.000
    O293    O    0.62982   0.46439   0.93468   1.000
    O294    O    0.47507   0.63780   0.95518   1.000
    O295    O    0.97509   0.63790   0.95529   1.000
loop_
    _geom_bond_atom_site_label_1
    _geom_bond_atom_site_label_2
    _geom_bond_distance
    _geom_bond_site_symmetry_2
    _ccdc_geom_bond_type
    C80    O136      1.13374      .   S
    C1     O136      1.13374  1_655   S
    C80    O137      0.59048  1_554   S
    C26    O137      0.59048      .   S
    C81    O138      1.13391      .   S
    C0     O138      1.13391      .   S
    C81    O139      0.59066  1_554   S
    C27    O139      0.59066      .   S
    C50    O140      0.65143      .   S
    C114   O140      0.65143      .   S
    C50    O141      0.59046      .   S
    C116   O141      0.59046  1_556   S
    C51    O142      0.65144      .   S
    C115   O142      0.65144      .   S
    C51    O143      0.59048      .   S
    C117   O143      0.59048  1_556   S
    C1     O144      1.17138      .   S
    C115   O144      1.17138      .   S
    C1     O145      1.07739      .   S
    C126   O145      1.07739      .   S
    C1     O146      1.08754  1_554   S
    C131   O146      1.08754      .   S
    C0     O147      1.17147      .   S
    C114   O147      1.17147      .   S
    C0     O148      1.07743      .   S
    C127   O148      1.07743      .   S
    C0     O149      1.08792  1_554   S
    C130   O149      1.08792      .   S
    C114   O150      0.68553      .   S
    C44    O150      0.68553      .   S
    C115   O151      0.68551      .   S
    C45    O151      0.68551      .   S
    C95    O152      0.59299      .   S
    C37    O152      0.59299      .   S
    C95    O153      1.08751      .   S
    C5     O153      1.08751  1_556   S
    C94    O154      0.59299      .   S
    C36    O154      0.59299      .   S
    C94    O155      1.08754      .   S
    C4     O155      1.08754  1_556   S
    C37    O156      0.64623      .   S
    C93    O156      0.64623      .   S
    C36    O157      0.64623      .   S
    C92    O157      0.64623      .   S
    C44    O158      0.67375      .   S
    C102   O158      0.67375      .   S
    C44    O159      0.67637      .   S
    C104   O159      0.67637      .   S
    C45    O160      0.67386      .   S
    C103   O160      0.67386      .   S
    C45    O161      0.67635      .   S
    C105   O161      0.67635      .   S
    C126   O162      0.59030      .   S
    C58    O162      0.59030      .   S
    C127   O163      0.59024      .   S
    C59    O163      0.59024      .   S
    C102   O164      0.66870      .   S
    C42    O164      0.66870      .   S
    C103   O165      0.66832      .   S
    C43    O165      0.66832      .   S
    C104   O166      0.66440      .   S
    C40    O166      0.66440      .   S
    C105   O167      0.66440      .   S
    C41    O167      0.66440      .   S
    C93    O168      0.67123      .   S
    C31    O168      0.67123      .   S
    C92    O169      0.67142      .   S
    C30    O169      0.67142      .   S
    C108   O170      0.59027      .   S
    C46    O170      0.59027      .   S
    C108   O171      1.07728      .   S
    C2     O171      1.07728      .   S
    C109   O172      0.59027      .   S
    C47    O172      0.59027      .   S
    C109   O173      1.07740      .   S
    C3     O173      1.07740      .   S
    C58    O174      0.65021      .   S
    C124   O174      0.65021      .   S
    C59    O175      0.65021      .   S
    C125   O175      0.65021      .   S
    C113   O176      1.08744      .   S
    C3     O176      1.08744  1_545   S
    C113   O177      0.59297      .   S
    C49    O177      0.59297      .   S
    C112   O178      1.08744      .   S
    C2     O178      1.08744  1_545   S
    C112   O179      0.59299      .   S
    C48    O179      0.59299      .   S
    C40    O180      0.68719      .   S
    C100   O180      0.68719      .   S
    C40    O181      0.67948      .   S
    C106   O181      0.67948      .   S
    C41    O182      0.68722      .   S
    C101   O182      0.68722      .   S
    C41    O183      0.67949      .   S
    C107   O183      0.67949      .   S
    C42    O184      0.69229      .   S
    C100   O184      0.69229      .   S
    C42    O185      0.67135      .   S
    C110   O185      0.67135      .   S
    C43    O186      0.69233      .   S
    C101   O186      0.69233      .   S
    C43    O187      0.67147      .   S
    C111   O187      0.67147      .   S
    C46    O188      0.65022      .   S
    C106   O188      0.65022      .   S
    C47    O189      0.65022      .   S
    C107   O189      0.65022      .   S
    C3     O190      1.13394      .   S
    C99    O190      1.13394      .   S
    C3     O191      1.17141      .   S
    C133   O191      1.17141      .   S
    C2     O192      1.13402      .   S
    C98    O192      1.13402      .   S
    C2     O193      1.17174      .   S
    C132   O193      1.17174      .   S
    C48    O194      0.64609      .   S
    C110   O194      0.64609      .   S
    C49    O195      0.64625      .   S
    C111   O195      0.64625      .   S
    C31    O196      0.66829      .   S
    C85    O196      0.66829      .   S
    C31    O197      0.69254      .   S
    C83    O197      0.69254      .   S
    C30    O198      0.66828      .   S
    C84    O198      0.66828      .   S
    C30    O199      0.69234      .   S
    C82    O199      0.69234      .   S
    C85    O200      0.67386      .   S
    C33    O200      0.67386      .   S
    C84    O201      0.67390      .   S
    C32    O201      0.67390      .   S
    C99    O202      0.59037  1_545   S
    C39    O202      0.59037      .   S
    C98    O203      0.59040  1_545   S
    C38    O203      0.59040      .   S
    C100   O204      0.52067      .   S
    C12    O204      0.52067      .   S
    C101   O205      0.52068      .   S
    C13    O205      0.52068      .   S
    C124   O206      0.67945      .   S
    C53    O206      0.67945      .   S
    C125   O207      0.67948      .   S
    C52    O207      0.67948      .   S
    C11    O208      0.52065      .   S
    C83    O208      0.52065      .   S
    C10    O209      0.52066      .   S
    C82    O209      0.52066      .   S
    C83    O210      0.68723      .   S
    C29    O210      0.68723      .   S
    C82    O211      0.68726      .   S
    C28    O211      0.68726      .   S
    C39    O212      0.65140      .   S
    C97    O212      0.65140      .   S
    C38    O213      0.65141      .   S
    C96    O213      0.65141      .   S
    C123   O214      0.66442      .   S
    C53    O214      0.66442      .   S
    C123   O215      0.67655      .   S
    C57    O215      0.67655      .   S
    C122   O216      0.66441      .   S
    C52    O216      0.66441      .   S
    C122   O217      0.67631      .   S
    C56    O217      0.67631      .   S
    C33    O218      0.68554      .   S
    C97    O218      0.68554      .   S
    C33    O219      0.67634      .   S
    C87    O219      0.67634      .   S
    C32    O220      0.68554      .   S
    C96    O220      0.68554      .   S
    C32    O221      0.67628      .   S
    C86    O221      0.67628      .   S
    C53    O222      0.68682      .   S
    C119   O222      0.68682      .   S
    C52    O223      0.68722      .   S
    C118   O223      0.68722      .   S
    C97    O224      1.17143      .   S
    C7     O224      1.17143      .   S
    C96    O225      1.17140      .   S
    C6     O225      1.17140      .   S
    C133   O226      0.68553      .   S
    C57    O226      0.68553      .   S
    C133   O227      0.65142      .   S
    C63    O227      0.65142      .   S
    C132   O228      0.68554      .   S
    C56    O228      0.68554      .   S
    C132   O229      0.65145      .   S
    C62    O229      0.65145      .   S
    C29    O230      0.66441      .   S
    C87    O230      0.66441      .   S
    C29    O231      0.67951      .   S
    C88    O231      0.67951      .   S
    C28    O232      0.66440      .   S
    C86    O232      0.66440      .   S
    C28    O233      0.68070      .   S
    C89    O233      0.68070      .   S
    C57    O234      0.67391      .   S
    C121   O234      0.67391      .   S
    C56    O235      0.67390      .   S
    C120   O235      0.67390      .   S
    C8     O236      0.52068      .   S
    C64    O236      0.52068      .   S
    C9     O237      0.52067      .   S
    C65    O237      0.52067      .   S
    C63    O238      0.59023      .   S
    C135   O238      0.59023  1_565   S
    C62    O239      0.59036      .   S
    C134   O239      0.59036  1_565   S
    C119   O240      0.52067      .   S
    C15    O240      0.52067      .   S
    C119   O241      0.69277      .   S
    C55    O241      0.69277      .   S
    C118   O242      0.52065      .   S
    C14    O242      0.52065      .   S
    C118   O243      0.69234      .   S
    C54    O243      0.69234      .   S
    C89    O244      0.65445      .   S
    C35    O244      0.65445      .   S
    C88    O245      0.65021      .   S
    C34    O245      0.65021      .   S
    C74    O246      0.64625      .   S
    C24    O246      0.64625      .   S
    C74    O247      0.67147      .   S
    C18    O247      0.67147      .   S
    C75    O248      0.64623      .   S
    C25    O248      0.64623      .   S
    C75    O249      0.67146      .   S
    C19    O249      0.67146      .   S
    C70    O250      0.65022      .   S
    C22    O250      0.65022      .   S
    C70    O251      0.67949      .   S
    C16    O251      0.67949      .   S
    C71    O252      0.65022      .   S
    C23    O252      0.65022      .   S
    C71    O253      0.67947      .   S
    C17    O253      0.67947      .   S
    C64    O254      0.69233      .   S
    C18    O254      0.69233      .   S
    C64    O255      0.68721      .   S
    C16    O255      0.68721      .   S
    C65    O256      0.69229      .   S
    C19    O256      0.69229      .   S
    C65    O257      0.68720      .   S
    C17    O257      0.68720      .   S
    C135   O258      1.13394      .   S
    C7     O258      1.13394      .   S
    C134   O259      1.13395      .   S
    C6     O259      1.13395      .   S
    C121   O260      0.66828      .   S
    C55    O260      0.66828      .   S
    C120   O261      0.66828      .   S
    C54    O261      0.66828      .   S
    C55    O262      0.67143      .   S
    C129   O262      0.67143      .   S
    C54    O263      0.67148      .   S
    C128   O263      0.67148      .   S
    C24    O264      0.59298      .   S
    C76    O264      0.59298      .   S
    C25    O265      0.59283      .   S
    C77    O265      0.59283      .   S
    C7     O266      1.08744  1_565   S
    C77    O266      1.08744      .   S
    C7     O267      1.07744      .   S
    C73    O267      1.07744      .   S
    C6     O268      1.08743  1_565   S
    C76    O268      1.08743      .   S
    C6     O269      1.07741      .   S
    C72    O269      1.07741      .   S
    C22    O270      0.59027      .   S
    C72    O270      0.59027      .   S
    C23    O271      0.59027      .   S
    C73    O271      0.59027      .   S
    C18    O272      0.66832      .   S
    C66    O272      0.66832      .   S
    C19    O273      0.66828      .   S
    C67    O273      0.66828      .   S
    C16    O274      0.66440      .   S
    C68    O274      0.66440      .   S
    C17    O275      0.66441      .   S
    C69    O275      0.66441      .   S
    C34    O276      0.59024      .   S
    C90    O276      0.59024      .   S
    C35    O277      0.58917      .   S
    C91    O277      0.58917      .   S
    C129   O278      0.64623      .   S
    C61    O278      0.64623      .   S
    C128   O279      0.64623      .   S
    C60    O279      0.64623      .   S
    C68    O280      0.67635      .   S
    C20    O280      0.67635      .   S
    C69    O281      0.67636      .   S
    C21    O281      0.67636      .   S
    C66    O282      0.67386      .   S
    C20    O282      0.67386      .   S
    C67    O283      0.67388      .   S
    C21    O283      0.67388      .   S
    C90    O284      1.07742      .   S
    C5     O284      1.07742      .   S
    C91    O285      1.07746      .   S
    C4     O285      1.07746      .   S
    C20    O286      0.68551      .   S
    C78    O286      0.68551      .   S
    C21    O287      0.68554      .   S
    C79    O287      0.68554      .   S
    C61    O288      0.59299      .   S
    C131   O288      0.59299      .   S
    C60    O289      0.59258      .   S
    C130   O289      0.59258      .   S
    C78    O290      1.17138      .   S
    C4     O290      1.17138      .   S
    C78    O291      0.65144      .   S
    C26    O291      0.65144      .   S
    C79    O292      1.17147      .   S
    C5     O292      1.17147      .   S
    C79    O293      0.65126      .   S
    C27    O293      0.65126      .   S
    C5     O294      1.13391      .   S
    C116   O294      1.13391      .   S
    C4     O295      1.13375  1_455   S
    C117   O295      1.13375      .   S
