# CIF file generated by openbabel 2.4.90, see http://openbabel.sf.net
data_I
_chemical_name_common 'AgH5C9S(NO)2'
_cell_length_a 7.58
_cell_length_b 10.5225
_cell_length_c 13.26
_cell_angle_alpha 90.014
_cell_angle_beta 90.038
_cell_angle_gamma 90.102
_space_group_name_H-M_alt 'P 1'
_space_group_name_Hall 'P 1'
loop_
    _symmetry_equiv_pos_as_xyz
    x,y,z
loop_
    _atom_site_label
    _atom_site_type_symbol
    _atom_site_fract_x
    _atom_site_fract_y
    _atom_site_fract_z
    _atom_site_occupancy
    Ag0     Ag   0.21328   0.12172   0.30675   1.000
    Ag1     Ag   0.28880   0.87918   0.80599   1.000
    Ag2     Ag   0.78719   0.62141   0.19518   1.000
    Ag3     Ag   0.71159   0.37935   0.69488   1.000
    H4      H    0.03577   0.60240   0.36797   1.000
    H5      H    0.22295   0.34419   0.68848   1.000
    H6      H    0.23537   0.17448   0.81804   1.000
    H7      H    0.05956   0.90141   0.61473   1.000
    H8      H    0.02457   0.05990   0.47882   1.000
    H9      H    0.46178   0.39815   0.86818   1.000
    H10     H    0.27710   0.65699   0.18850   1.000
    H11     H    0.26650   0.82675   0.31822   1.000
    H12     H    0.44295   0.09903   0.11577   1.000
    H13     H    0.47681   0.94050   0.97891   1.000
    H14     H    0.96497   0.10275   0.13432   1.000
    H15     H    0.77773   0.84437   0.81363   1.000
    H16     H    0.76530   0.67472   0.68393   1.000
    H17     H    0.94050   0.40190   0.88658   1.000
    H18     H    0.97577   0.56035   0.02309   1.000
    H19     H    0.53822   0.89722   0.63280   1.000
    H20     H    0.72341   0.15654   0.31246   1.000
    H21     H    0.73419   0.32657   0.18292   1.000
    H22     H    0.55743   0.59826   0.38608   1.000
    H23     H    0.52364   0.43928   0.52234   1.000
    C24     C    0.10754   0.39593   0.22323   1.000
    C25     C    0.10388   0.40080   0.33764   1.000
    C26     C    0.06660   0.50719   0.39461   1.000
    C27     C    0.11208   0.31401   0.49295   1.000
    C28     C    0.12273   0.21711   0.57177   1.000
    C29     C    0.17789   0.24831   0.66997   1.000
    C30     C    0.18842   0.15319   0.74222   1.000
    C31     C    0.09177   0.00098   0.62891   1.000
    C32     C    0.07541   0.09007   0.55221   1.000
    C33     C    0.39236   0.60428   0.72342   1.000
    C34     C    0.39526   0.59997   0.83781   1.000
    C35     C    0.43157   0.49346   0.89484   1.000
    C36     C    0.38753   0.68689   0.99302   1.000
    C37     C    0.37777   0.78377   0.07184   1.000
    C38     C    0.32271   0.75272   0.17004   1.000
    C39     C    0.31325   0.84784   0.24236   1.000
    C40     C    0.41071   0.99972   0.12907   1.000
    C41     C    0.42609   0.91060   0.05233   1.000
    C42     C    0.89262   0.89589   0.27897   1.000
    C43     C    0.89640   0.90086   0.16456   1.000
    C44     C    0.93381   0.00739   0.10773   1.000
    C45     C    0.88834   0.81422   0.00917   1.000
    C46     C    0.87776   0.71740   0.93026   1.000
    C47     C    0.82271   0.74858   0.83208   1.000
    C48     C    0.81218   0.65348   0.75974   1.000
    C49     C    0.90871   0.50140   0.87294   1.000
    C50     C    0.92504   0.59046   0.94971   1.000
    C51     C    0.60799   0.10422   0.77741   1.000
    C52     C    0.60499   0.09925   0.66311   1.000
    C53     C    0.56843   0.99260   0.60618   1.000
    C54     C    0.61278   0.18598   0.50791   1.000
    C55     C    0.62263   0.28294   0.42918   1.000
    C56     C    0.67777   0.25214   0.33096   1.000
    C57     C    0.68734   0.34740   0.25879   1.000
    C58     C    0.58987   0.49891   0.37228   1.000
    C59     C    0.57439   0.40962   0.44888   1.000
    S60     S    0.06462   0.47192   0.52029   1.000
    S61     S    0.43371   0.52882   0.02047   1.000
    S62     S    0.93597   0.97227   0.98202   1.000
    S63     S    0.56626   0.02780   0.48051   1.000
    N64     N    0.13044   0.29285   0.39468   1.000
    N65     N    0.14947   0.02992   0.72295   1.000
    N66     N    0.36953   0.70810   0.89473   1.000
    N67     N    0.35310   0.97095   0.22311   1.000
    N68     N    0.86985   0.79290   0.10740   1.000
    N69     N    0.85106   0.53029   0.77892   1.000
    N70     N    0.63089   0.20738   0.60616   1.000
    N71     N    0.64752   0.47038   0.27822   1.000
    O72     O    0.13956   0.28976   0.18209   1.000
    O73     O    0.07469   0.49983   0.17799   1.000
    O74     O    0.36342   0.71040   0.68148   1.000
    O75     O    0.42296   0.49946   0.67904   1.000
    O76     O    0.86042   0.78967   0.32006   1.000
    O77     O    0.92552   0.99987   0.32425   1.000
    O78     O    0.63689   0.21092   0.81854   1.000
    O79     O    0.57754   0.99983   0.82254   1.000
loop_
    _geom_bond_atom_site_label_1
    _geom_bond_atom_site_label_2
    _geom_bond_distance
    _geom_bond_site_symmetry_2
    _ccdc_geom_bond_type
    C45    N68       1.32924      .   S
    C45    C46       1.46237  1_554   S
    C45    S62       1.73895  1_554   S
    S61    C35       1.70687  1_554   S
    S61    C36       1.73885  1_554   S
    H18    C50       1.09311  1_554   S
    C41    C37       1.40733      .   S
    C41    C40       1.38874      .   S
    C41    H13       1.09308  1_554   S
    C37    C38       1.40608      .   S
    C37    C36       1.46181  1_554   S
    N68    C43       1.37985      .   S
    N68    Ag2       2.23642      .   S
    C44    H14       1.08898      .   S
    C44    C43       1.38009  1_545   S
    C44    S62       1.70734  1_544   S
    H12    C40       1.08716  1_545   S
    C40    N67       1.35557      .   S
    C43    C42       1.51826      .   S
    C38    H10       1.09234      .   S
    C38    C39       1.38793      .   S
    O73    Ag2       2.53937  1_455   S
    O73    C24       1.27205      .   S
    O72    C24       1.26704      .   S
    O72    Ag0       2.48499      .   S
    H21    C57       1.08945      .   S
    Ag2    N71       2.20353      .   S
    Ag2    O76       2.48560      .   S
    N67    C39       1.35401      .   S
    N67    Ag0       2.20840  1_565   S
    C24    C25       1.51828      .   S
    C39    H11       1.08948      .   S
    C57    N71       1.35396      .   S
    C57    C56       1.38786      .   S
    N71    C58       1.35557      .   S
    C42    O76       1.26697      .   S
    C42    O77       1.27206      .   S
    Ag0    O77       2.53897  1_445   S
    Ag0    N64       2.23616      .   S
    H20    C56       1.09231      .   S
    C56    C55       1.40592      .   S
    C25    C26       1.38005      .   S
    C25    N64       1.37988      .   S
    H4     C26       1.08816      .   S
    C58    H22       1.08984      .   S
    C58    C59       1.38864      .   S
    C26    S60       1.70754      .   S
    N64    C27       1.32925      .   S
    C55    C59       1.40731      .   S
    C55    C54       1.46175      .   S
    C59    H23       1.09320      .   S
    H8     C32       1.09326      .   S
    S63    C54       1.73900      .   S
    S63    C53       1.70720  1_545   S
    C27    S60       1.73893      .   S
    C27    C28       1.46269      .   S
    C54    N70       1.32904      .   S
    C32    C28       1.40742      .   S
    C32    C31       1.38895      .   S
    C28    C29       1.40595      .   S
    N70    C52       1.37948      .   S
    N70    Ag3       2.24204      .   S
    C53    H19       1.08795      .   S
    C53    C52       1.37998  1_565   S
    H7     C31       1.09159  1_565   S
    C31    N65       1.35557      .   S
    C52    C51       1.51674      .   S
    C29    H5        1.09238      .   S
    C29    C30       1.38811      .   S
    O75    Ag3       2.53725      .   S
    O75    C33       1.27173      .   S
    O74    C33       1.26701      .   S
    O74    Ag1       2.49060      .   S
    H16    C48       1.08943      .   S
    Ag3    N69       2.20767      .   S
    Ag3    O78       2.47987      .   S
    N65    C30       1.35400      .   S
    N65    Ag1       2.20208  1_545   S
    C33    C34       1.51771      .   S
    C30    H6        1.08939      .   S
    C48    N69       1.35397      .   S
    C48    C47       1.38811      .   S
    C51    O78       1.26675      .   S
    C51    O79       1.27181  1_545   S
    N69    C49       1.35555      .   S
    Ag1    O79       2.53763      .   S
    Ag1    N66       2.23683      .   S
    H15    C47       1.09239      .   S
    C47    C46       1.40596      .   S
    C34    N66       1.37941      .   S
    C34    C35       1.38021      .   S
    H9     C35       1.08806      .   S
    C49    H17       1.08986      .   S
    C49    C50       1.38891      .   S
    N66    C36       1.32941      .   S
    C46    C50       1.40738      .   S
