# CIF file generated by openbabel 2.4.90, see http://openbabel.sf.net
data_I
_chemical_name_common ''
_cell_length_a 18.923
_cell_length_b 18.949
_cell_length_c 18.947
_cell_angle_alpha 90
_cell_angle_beta 89.998
_cell_angle_gamma 89.999
_space_group_name_H-M_alt 'P 1'
_space_group_name_Hall 'P 1'
loop_
    _symmetry_equiv_pos_as_xyz
    x,y,z
loop_
    _atom_site_label
    _atom_site_type_symbol
    _atom_site_fract_x
    _atom_site_fract_y
    _atom_site_fract_z
    _atom_site_occupancy
    Lv0     Lv   0.67672   0.67670   0.78789   1.000
    Lv1     Lv   0.71532   0.28478   0.71530   1.000
    Lv2     Lv   0.67673   0.67677   0.21215   1.000
    Lv3     Lv   0.28498   0.71523   0.71516   1.000
    Lv4     Lv   0.28465   0.71524   0.28468   1.000
    Lv5     Lv   0.71497   0.28480   0.28487   1.000
    Lv6     Lv   0.28487   0.28481   0.71520   1.000
    Lv7     Lv   0.28484   0.28482   0.28466   1.000
