# CIF file generated by openbabel 2.4.90, see http://openbabel.sf.net
data_I
_chemical_name_common ''
_cell_length_a 18.923
_cell_length_b 18.949
_cell_length_c 18.947
_cell_angle_alpha 90
_cell_angle_beta 89.998
_cell_angle_gamma 89.999
_space_group_name_H-M_alt 'P 1'
_space_group_name_Hall 'P 1'
loop_
    _symmetry_equiv_pos_as_xyz
    x,y,z
loop_
    _atom_site_label
    _atom_site_type_symbol
    _atom_site_fract_x
    _atom_site_fract_y
    _atom_site_fract_z
    _atom_site_occupancy
    H0      H    0.28159   0.55697   0.13490   1.000
    H1      H    0.71778   0.44343   0.13559   1.000
    H2      H    0.55635   0.28257   0.86469   1.000
    H3      H    0.44353   0.71776   0.86504   1.000
    H4      H    0.71776   0.44362   0.86444   1.000
    H5      H    0.28287   0.55598   0.86370   1.000
    H6      H    0.44416   0.71685   0.13590   1.000
    H7      H    0.55587   0.28289   0.13560   1.000
    C8      C    0.32688   0.59066   0.12569   1.000
    C9      C    0.67270   0.40954   0.12607   1.000
    C10     C    0.59045   0.32748   0.87413   1.000
    C11     C    0.40959   0.67269   0.87424   1.000
    C12     C    0.67277   0.40962   0.87400   1.000
    C13     C    0.32763   0.59019   0.87364   1.000
    C14     C    0.40977   0.67224   0.12610   1.000
    C15     C    0.59013   0.32765   0.12606   1.000
    C16     C    0.34801   0.65184   0.16186   1.000
    C17     C    0.65166   0.34822   0.16200   1.000
    C18     C    0.65192   0.34819   0.83810   1.000
    C19     C    0.34836   0.65178   0.83793   1.000
    N20     N    0.37249   0.57636   0.07288   1.000
    N21     N    0.62722   0.42378   0.07313   1.000
    N22     N    0.57637   0.37304   0.92699   1.000
    N23     N    0.42367   0.62708   0.92706   1.000
    N24     N    0.62726   0.42379   0.92693   1.000
    N25     N    0.37303   0.57606   0.92668   1.000
    N26     N    0.42375   0.62675   0.07319   1.000
    N27     N    0.57616   0.37320   0.07316   1.000
loop_
    _geom_bond_atom_site_label_1
    _geom_bond_atom_site_label_2
    _geom_bond_distance
    _geom_bond_site_symmetry_2
    _ccdc_geom_bond_type
    N20    N26       1.36120      .   S
    N20    C8        1.34886      .   S
    N21    N27       1.36095      .   S
    N21    C9        1.34893      .   S
    N27    C15       1.34881      .   S
    N26    C14       1.34825      .   S
    C8     H0        1.08285      .   S
    C8     C16       1.40485      .   S
    C15    H7        1.08277      .   S
    C15    C17       1.40415      .   S
    C9     H1        1.08288      .   S
    C9     C17       1.40434      .   S
    C14    H6        1.08288      .   S
    C14    C16       1.40499      .   S
    C19    C13       1.40484      .   S
    C19    C11       1.40463      .   S
    C18    C12       1.40479      .   S
    C18    C10       1.40467      .   S
    H5     C13       1.08313      .   S
    H4     C12       1.08287      .   S
    H2     C10       1.08278      .   S
    H3     C11       1.08280      .   S
    C13    N25       1.34902      .   S
    C12    N24       1.34897      .   S
    C10    N22       1.34880      .   S
    C11    N23       1.34877      .   S
    N25    N23       1.36119      .   S
    N24    N22       1.36095      .   S
