# CIF file generated by openbabel 2.4.90, see http://openbabel.sf.net
data_I
_chemical_name_common ''
_cell_length_a 18.923
_cell_length_b 18.949
_cell_length_c 18.947
_cell_angle_alpha 90
_cell_angle_beta 89.998
_cell_angle_gamma 89.999
_space_group_name_H-M_alt 'P 1'
_space_group_name_Hall 'P 1'
loop_
    _symmetry_equiv_pos_as_xyz
    x,y,z
loop_
    _atom_site_label
    _atom_site_type_symbol
    _atom_site_fract_x
    _atom_site_fract_y
    _atom_site_fract_z
    _atom_site_occupancy
    Mc0     Mc   0.62755   0.37261   0.88133   1.000
    Mc1     Mc   0.37267   0.62736   0.88118   1.000
    Mc2     Mc   0.37238   0.62738   0.11865   1.000
    Mc3     Mc   0.62736   0.37267   0.11880   1.000
