# CIF file generated by openbabel 2.4.90, see http://openbabel.sf.net
data_I
_chemical_name_common ''
_cell_length_a 18.923
_cell_length_b 18.949
_cell_length_c 18.947
_cell_angle_alpha 90
_cell_angle_beta 89.998
_cell_angle_gamma 89.999
_space_group_name_H-M_alt 'P 1'
_space_group_name_Hall 'P 1'
loop_
    _symmetry_equiv_pos_as_xyz
    x,y,z
loop_
    _atom_site_label
    _atom_site_type_symbol
    _atom_site_fract_x
    _atom_site_fract_y
    _atom_site_fract_z
    _atom_site_occupancy
    N0      N    0.67672   0.67670   0.78789   1.000
    N1      N    0.71532   0.28478   0.71530   1.000
    N2      N    0.67673   0.67677   0.21215   1.000
    N3      N    0.28498   0.71523   0.71516   1.000
    N4      N    0.28465   0.71524   0.28468   1.000
    N5      N    0.71497   0.28480   0.28487   1.000
    N6      N    0.28487   0.28481   0.71520   1.000
    N7      N    0.28484   0.28482   0.28466   1.000
    Zr8     Zr   0.49998   0.00000   0.49999   1.000
    O9      O    0.40415   0.11943   0.59586   1.000
    O10     O    0.40401   0.88062   0.40405   1.000
    O11     O    0.59596   0.11939   0.59594   1.000
    O12     O    0.40411   0.11942   0.40404   1.000
    O13     O    0.59574   0.11944   0.40418   1.000
    O14     O    0.40421   0.88058   0.59583   1.000
    O15     O    0.58623   0.87097   0.38595   1.000
    O16     O    0.58625   0.87096   0.61408   1.000
    Zr17    Zr   0.99999   0.50001   0.49999   1.000
    O18     O    0.87093   0.58625   0.38598   1.000
    O19     O    0.11949   0.59589   0.59584   1.000
    O20     O    0.87092   0.58622   0.61404   1.000
    O21     O    0.11946   0.40416   0.59576   1.000
    O22     O    0.11944   0.40417   0.40408   1.000
    O23     O    0.88047   0.40413   0.40415   1.000
    O24     O    0.11937   0.59585   0.40411   1.000
    O25     O    0.88060   0.40417   0.59587   1.000
    Zr26    Zr   0.38057   0.38069   0.99999   1.000
    O27     O    0.48172   0.37675   0.96119   1.000
    O28     O    0.48165   0.37679   0.03883   1.000
    O29     O    0.34444   0.34450   0.11937   1.000
    O30     O    0.34443   0.34447   0.88058   1.000
    O31     O    0.37665   0.48170   0.96112   1.000
    O32     O    0.37651   0.48174   0.03876   1.000
loop_
    _geom_bond_atom_site_label_1
    _geom_bond_atom_site_label_2
    _geom_bond_distance
    _geom_bond_site_symmetry_2
    _ccdc_geom_bond_type
    Zr8    O9        3.42186      .   S
    N6     O9        4.47514      .   S
    Zr8    O10       3.42350  1_545   S
    N4     O10       4.47635      .   S
    Zr8    O11       3.42371      .   S
    N1     O11       4.47643      .   S
    Zr8    O12       3.42294      .   S
    N7     O12       4.47587      .   S
    Zr8    O13       3.42065      .   S
    N5     O13       4.47429      .   S
    Zr8    O14       3.42089  1_545   S
    N3     O14       4.47433      .   S
    Zr8    O15       3.64825  1_545   S
    N2     O15       5.22668      .   S
    Zr8    O16       3.64923  1_545   S
    N0     O16       5.22741      .   S
    Zr17   O18       3.64705      .   S
    N2     O18       5.22434      .   S
    Zr17   O19       3.42250  1_655   S
    N3     O19       4.47568      .   S
    Zr17   O20       3.64732      .   S
    N0     O20       5.22435      .   S
    Zr17   O21       3.42096  1_655   S
    N6     O21       4.47590      .   S
    Zr17   O22       3.42189  1_655   S
    N7     O22       4.47528      .   S
    Zr17   O23       3.42235      .   S
    N5     O23       4.47550      .   S
    Zr17   O24       3.42076  1_655   S
    N4     O24       4.47438      .   S
    Zr17   O25       3.42088      .   S
    N1     O25       4.47445      .   S
    Zr26   O27       2.05175      .   S
    N1     O27       6.65434      .   S
    Zr26   O28       2.05080  1_556   S
    N5     O28       6.65310      .   S
    Zr26   O29       2.46036  1_556   S
    N7     O29       3.51559      .   S
    Zr26   O30       2.46120      .   S
    N6     O30       3.51667      .   S
    Zr26   O31       2.05214      .   S
    N3     O31       6.65661      .   S
    Zr26   O32       2.05229  1_556   S
    N4     O32       6.65645      .   S
