# CIF file generated by openbabel 2.4.90, see http://openbabel.sf.net
data_I
_chemical_name_common ''
_cell_length_a 14.42
_cell_length_b 16.433
_cell_length_c 18.991
_cell_angle_alpha 115.842
_cell_angle_beta 102.848
_cell_angle_gamma 89.993
_space_group_name_H-M_alt 'P 1'
_space_group_name_Hall 'P 1'
loop_
    _symmetry_equiv_pos_as_xyz
    x,y,z
loop_
    _atom_site_label
    _atom_site_type_symbol
    _atom_site_fract_x
    _atom_site_fract_y
    _atom_site_fract_z
    _atom_site_occupancy
    N0      N    0.50449   0.35017   0.74110   1.000
    N1      N    0.04647   0.87547   0.70278   1.000
    N2      N    0.04818   0.27348   0.21791   1.000
    N3      N    0.95202   0.12448   0.29697   1.000
    N4      N    0.49549   0.64978   0.25889   1.000
    N5      N    0.95179   0.72647   0.78173   1.000
    N6      N    0.54646   0.82668   0.70228   1.000
    N7      N    0.54863   0.94447   0.21847   1.000
    N8      N    0.00464   0.39089   0.74119   1.000
    N9      N    0.99534   0.60907   0.25881   1.000
    N10     N    0.45135   0.05516   0.78115   1.000
    N11     N    0.45354   0.17328   0.29773   1.000
    Zr12    Zr   0.22664   0.88908   0.27802   1.000
    O13     O    0.29493   0.94356   0.44044   1.000
    O14     O    0.14505   0.83624   0.11746   1.000
    Zr15    Zr   0.72672   0.38898   0.27792   1.000
    O16     O    0.64495   0.28105   0.11724   1.000
    O17     O    0.79516   0.49721   0.44052   1.000
    Zr18    Zr   0.27327   0.61098   0.72210   1.000
    O19     O    0.35504   0.71883   0.88268   1.000
    O20     O    0.20483   0.50275   0.55940   1.000
    Zr21    Zr   0.77335   0.11088   0.72200   1.000
    O22     O    0.85493   0.16372   0.88246   1.000
    O23     O    0.70506   0.05631   0.55948   1.000
    O24     O    0.29368   0.97435   0.28525   1.000
    O25     O    0.15840   0.80515   0.27098   1.000
    O26     O    0.14383   0.95747   0.28463   1.000
    O27     O    0.30799   0.81972   0.27116   1.000
    O28     O    0.64426   0.32742   0.28479   1.000
    O29     O    0.80802   0.45143   0.27108   1.000
    O30     O    0.79336   0.31093   0.28468   1.000
    O31     O    0.65855   0.46589   0.27095   1.000
    O32     O    0.85579   0.04249   0.71532   1.000
    O33     O    0.69200   0.18024   0.72884   1.000
    O34     O    0.70631   0.02561   0.71475   1.000
    O35     O    0.84159   0.19481   0.72903   1.000
    O36     O    0.20626   0.68902   0.71502   1.000
    O37     O    0.34144   0.53406   0.72905   1.000
    O38     O    0.35573   0.67254   0.71523   1.000
    O39     O    0.19196   0.54853   0.72894   1.000
loop_
    _geom_bond_atom_site_label_1
    _geom_bond_atom_site_label_2
    _geom_bond_distance
    _geom_bond_site_symmetry_2
    _ccdc_geom_bond_type
    Zr12   O13       2.74365      .   S
    N10    O13       5.78650  1_545   S
    Zr12   O14       2.74447      .   S
    N5     O14       5.80894  1_656   S
    Zr15   O16       2.74409      .   S
    N10    O16       5.80813  1_556   S
    Zr15   O17       2.74396      .   S
    N5     O17       5.78752      .   S
    Zr18   O19       2.74246      .   S
    N7     O19       5.80344  1_554   S
    Zr18   O20       2.74538      .   S
    N2     O20       5.79163      .   S
    Zr21   O22       2.74289      .   S
    N2     O22       5.80431  1_454   S
    Zr21   O23       2.74514      .   S
    N7     O23       5.79083  1_565   S
    Zr12   O24       1.64020      .   S
    N11    O24       3.89099  1_545   S
    Zr12   O25       1.63383      .   S
    N9     O25       3.88274  1_655   S
    Zr12   O26       1.62742      .   S
    N3     O26       3.86815  1_645   S
    Zr12   O27       1.62181      .   S
    N4     O27       3.85670      .   S
    Zr15   O28       1.62432      .   S
    N11    O28       3.85817      .   S
    Zr15   O29       1.62149      .   S
    N9     O29       3.85593      .   S
    Zr15   O30       1.63492      .   S
    N3     O30       3.88085      .   S
    Zr15   O31       1.63374      .   S
    N4     O31       3.88262      .   S
    Zr21   O32       1.62331      .   S
    N1     O32       3.85613  1_465   S
    Zr21   O33       1.62184      .   S
    N0     O33       3.85677      .   S
    Zr21   O34       1.64017      .   S
    N6     O34       3.89097  1_565   S
    Zr21   O35       1.63386      .   S
    N8     O35       3.88271  1_455   S
    N1     O36       3.88986      .   S
    Zr18   O36       1.63973      .   S
    N0     O37       3.88253      .   S
    Zr18   O37       1.63366      .   S
    N6     O38       3.85828      .   S
    Zr18   O38       1.62438      .   S
    N8     O39       3.85587      .   S
    Zr18   O39       1.62146      .   S
