# CIF file generated by openbabel 2.4.90, see http://openbabel.sf.net
data_I
_chemical_name_common ''
_cell_length_a 14.42
_cell_length_b 16.433
_cell_length_c 18.991
_cell_angle_alpha 115.842
_cell_angle_beta 102.848
_cell_angle_gamma 89.993
_space_group_name_H-M_alt 'P 1'
_space_group_name_Hall 'P 1'
loop_
    _symmetry_equiv_pos_as_xyz
    x,y,z
loop_
    _atom_site_label
    _atom_site_type_symbol
    _atom_site_fract_x
    _atom_site_fract_y
    _atom_site_fract_z
    _atom_site_occupancy
    N0      N    0.50449   0.35017   0.74110   1.000
    N1      N    0.04647   0.87547   0.70278   1.000
    N2      N    0.04818   0.27348   0.21791   1.000
    N3      N    0.95202   0.12448   0.29697   1.000
    N4      N    0.49549   0.64978   0.25889   1.000
    N5      N    0.95179   0.72647   0.78173   1.000
    N6      N    0.54646   0.82668   0.70228   1.000
    N7      N    0.54863   0.94447   0.21847   1.000
    N8      N    0.00464   0.39089   0.74119   1.000
    N9      N    0.99534   0.60907   0.25881   1.000
    N10     N    0.45135   0.05516   0.78115   1.000
    N11     N    0.45354   0.17328   0.29773   1.000
    Zr12    Zr   0.22664   0.88908   0.27802   1.000
    O13     O    0.16452   0.81372   0.29034   1.000
    O14     O    0.29493   0.94356   0.44044   1.000
    O15     O    0.30040   0.98253   0.30457   1.000
    O16     O    0.15025   0.96636   0.30399   1.000
    O17     O    0.31433   0.82863   0.29053   1.000
    O18     O    0.15228   0.79658   0.25162   1.000
    O19     O    0.28697   0.96616   0.26594   1.000
    O20     O    0.14505   0.83624   0.11746   1.000
    O21     O    0.13740   0.94858   0.26527   1.000
    O22     O    0.30165   0.81081   0.25180   1.000
    Zr23    Zr   0.72672   0.38898   0.27792   1.000
    O24     O    0.64495   0.28105   0.11724   1.000
    O25     O    0.63789   0.31671   0.26543   1.000
    O26     O    0.78672   0.29970   0.26561   1.000
    O27     O    0.65234   0.45491   0.25160   1.000
    O28     O    0.80162   0.44089   0.25173   1.000
    O29     O    0.79516   0.49721   0.44052   1.000
    O30     O    0.79999   0.32217   0.30375   1.000
    O31     O    0.66475   0.47688   0.29030   1.000
    O32     O    0.81442   0.46198   0.29042   1.000
    O33     O    0.65063   0.33813   0.30415   1.000
    Zr34    Zr   0.27327   0.61098   0.72210   1.000
    O35     O    0.21289   0.70026   0.73434   1.000
    O36     O    0.34765   0.54505   0.74841   1.000
    O37     O    0.36210   0.68325   0.73458   1.000
    O38     O    0.35504   0.71883   0.88268   1.000
    O39     O    0.19836   0.55907   0.74829   1.000
    O40     O    0.20483   0.50275   0.55940   1.000
    O41     O    0.19963   0.67779   0.69570   1.000
    O42     O    0.33523   0.52308   0.70970   1.000
    O43     O    0.34936   0.66183   0.69587   1.000
    O44     O    0.18557   0.53798   0.70959   1.000
    Zr45    Zr   0.77335   0.11088   0.72200   1.000
    O46     O    0.85493   0.16372   0.88246   1.000
    O47     O    0.86222   0.05138   0.73468   1.000
    O48     O    0.71302   0.03380   0.73407   1.000
    O49     O    0.84771   0.20338   0.74840   1.000
    O50     O    0.69834   0.18914   0.74821   1.000
    O51     O    0.84936   0.03360   0.69595   1.000
    O52     O    0.69960   0.01743   0.69543   1.000
    O53     O    0.70506   0.05631   0.55948   1.000
    O54     O    0.83547   0.18624   0.70967   1.000
    O55     O    0.68566   0.17133   0.70948   1.000
loop_
    _geom_bond_atom_site_label_1
    _geom_bond_atom_site_label_2
    _geom_bond_distance
    _geom_bond_site_symmetry_2
    _ccdc_geom_bond_type
    Zr12   O13       1.65437      .   S
    N9     O13       3.90081  1_655   S
    Zr12   O14       2.74365      .   S
    N10    O14       5.78650  1_545   S
    Zr12   O15       1.68245      .   S
    N11    O15       3.89911  1_545   S
    Zr12   O16       1.66275      .   S
    N3     O16       3.88218  1_645   S
    Zr12   O17       1.64742      .   S
    N4     O17       3.87033      .   S
    Zr12   O18       1.67579      .   S
    N9     O18       3.89121  1_655   S
    Zr12   O19       1.66023      .   S
    N11    O19       3.90936  1_545   S
    Zr12   O20       2.74447      .   S
    N5     O20       5.80894  1_656   S
    Zr12   O21       1.65484      .   S
    N3     O21       3.88074  1_645   S
    Zr12   O22       1.65914      .   S
    N4     O22       3.86976      .   S
    Zr23   O24       2.74409      .   S
    N10    O24       5.80813  1_556   S
    Zr23   O25       1.65138      .   S
    N11    O25       3.87115      .   S
    Zr23   O26       1.65721      .   S
    N3     O26       3.89727      .   S
    Zr23   O27       1.67550      .   S
    N4     O27       3.89116      .   S
    Zr23   O28       1.65866      .   S
    N9     O28       3.86906      .   S
    Zr23   O29       2.74396      .   S
    N5     O29       5.78752      .   S
    Zr23   O30       1.67361      .   S
    N3     O30       3.89033      .   S
    Zr23   O31       1.65448      .   S
    N4     O31       3.90060      .   S
    Zr23   O32       1.64719      .   S
    N9     O32       3.86947      .   S
    Zr23   O33       1.66012      .   S
    N11    O33       3.87188      .   S
    Zr34   O35       1.66035      .   S
    N1     O35       3.90784      .   S
    Zr34   O36       1.67542      .   S
    N0     O36       3.89108      .   S
    Zr34   O37       1.65143      .   S
    N6     O37       3.87126      .   S
    Zr34   O38       2.74246      .   S
    N7     O38       5.80344  1_554   S
    Zr34   O39       1.65862      .   S
    N8     O39       3.86901      .   S
    Zr34   O40       2.74538      .   S
    N2     O40       5.79163      .   S
    Zr34   O41       1.68139      .   S
    N1     O41       3.89836      .   S
    Zr34   O42       1.65443      .   S
    N0     O42       3.90052      .   S
    Zr34   O43       1.66018      .   S
    N6     O43       3.87198      .   S
    Zr34   O44       1.64719      .   S
    N8     O44       3.86938      .   S
    Zr45   O46       2.74289      .   S
    N2     O46       5.80431  1_454   S
    Zr45   O47       1.65055      .   S
    N1     O47       3.86907  1_465   S
    Zr45   O48       1.66021      .   S
    N6     O48       3.90932  1_565   S
    Zr45   O49       1.67578      .   S
    N8     O49       3.89124  1_455   S
    Zr45   O50       1.65914      .   S
    N0     O50       3.86986      .   S
    Zr45   O51       1.65901      .   S
    N1     O51       3.86990  1_465   S
    Zr45   O52       1.68242      .   S
    N6     O52       3.89911  1_565   S
    Zr45   O53       2.74514      .   S
    N7     O53       5.79083  1_565   S
    Zr45   O54       1.65449      .   S
    N8     O54       3.90074  1_455   S
    Zr45   O55       1.64748      .   S
    N0     O55       3.87037      .   S
