# CIF file generated by openbabel 2.4.90, see http://openbabel.sf.net
data_I
_chemical_name_common ''
_cell_length_a 19.673
_cell_length_b 24.252
_cell_length_c 15.389
_cell_angle_alpha 96.079
_cell_angle_beta 98.001
_cell_angle_gamma 113.54
_space_group_name_H-M_alt 'P 1'
_space_group_name_Hall 'P 1'
loop_
    _symmetry_equiv_pos_as_xyz
    x,y,z
loop_
    _atom_site_label
    _atom_site_type_symbol
    _atom_site_fract_x
    _atom_site_fract_y
    _atom_site_fract_z
    _atom_site_occupancy
    Lv0     Lv   0.25009   0.04649   0.14441   1.000
    Lv1     Lv   0.76254   0.47647   0.61048   1.000
    Lv2     Lv   0.24973   0.45343   0.85549   1.000
    Lv3     Lv   0.23744   0.02377   0.38953   1.000
    Lv4     Lv   0.73752   0.52351   0.38945   1.000
    Lv5     Lv   0.23751   0.52351   0.38939   1.000
    Lv6     Lv   0.74996   0.95349   0.85554   1.000
    Lv7     Lv   0.24995   0.95349   0.85554   1.000
    Lv8     Lv   0.73745   0.02377   0.38949   1.000
    Lv9     Lv   0.75032   0.54655   0.14445   1.000
    Lv10    Lv   0.26260   0.97621   0.61040   1.000
    Lv11    Lv   0.74975   0.45343   0.85549   1.000
    Lv12    Lv   0.75010   0.04649   0.14441   1.000
    Lv13    Lv   0.76262   0.97621   0.61040   1.000
    Lv14    Lv   0.26253   0.47647   0.61047   1.000
    Lv15    Lv   0.25031   0.54655   0.14444   1.000
