# CIF file generated by openbabel 2.4.90, see http://openbabel.sf.net
data_I
_chemical_name_common ''
_cell_length_a 19.673
_cell_length_b 24.252
_cell_length_c 15.389
_cell_angle_alpha 96.079
_cell_angle_beta 98.001
_cell_angle_gamma 113.54
_space_group_name_H-M_alt 'P 1'
_space_group_name_Hall 'P 1'
loop_
    _symmetry_equiv_pos_as_xyz
    x,y,z
loop_
    _atom_site_label
    _atom_site_type_symbol
    _atom_site_fract_x
    _atom_site_fract_y
    _atom_site_fract_z
    _atom_site_occupancy
    H0      H    0.14338   0.49706   0.81346   1.000
    H1      H    0.14344   0.99695   0.81340   1.000
    H2      H    0.64340   0.49706   0.81346   1.000
    H3      H    0.64346   0.99695   0.81340   1.000
    H4      H    0.36527   0.02671   0.94671   1.000
    H5      H    0.36516   0.52658   0.94659   1.000
    H6      H    0.86528   0.02671   0.94670   1.000
    H7      H    0.86517   0.52658   0.94658   1.000
    H8      H    0.33705   0.41758   0.89060   1.000
    H9      H    0.33739   0.91777   0.89072   1.000
    H10     H    0.83706   0.41758   0.89060   1.000
    H11     H    0.83740   0.91778   0.89072   1.000
    H12     H    0.21109   0.34927   0.79376   1.000
    H13     H    0.21151   0.84936   0.79377   1.000
    H14     H    0.71110   0.34927   0.79376   1.000
    H15     H    0.71152   0.84935   0.79377   1.000
    H16     H    0.41202   0.00357   0.66829   1.000
    H17     H    0.41191   0.50370   0.66840   1.000
    H18     H    0.91203   0.00357   0.66829   1.000
    H19     H    0.91192   0.50370   0.66840   1.000
    H20     H    0.23572   0.06242   0.59929   1.000
    H21     H    0.23581   0.56274   0.59917   1.000
    H22     H    0.73573   0.06242   0.59929   1.000
    H23     H    0.73582   0.56274   0.59917   1.000
    H24     H    0.13969   0.45456   0.56852   1.000
    H25     H    0.13973   0.95421   0.56846   1.000
    H26     H    0.63970   0.45456   0.56852   1.000
    H27     H    0.63974   0.95421   0.56846   1.000
    H28     H    0.18159   0.37041   0.57600   1.000
    H29     H    0.18180   0.87013   0.57578   1.000
    H30     H    0.68160   0.37042   0.57604   1.000
    H31     H    0.68181   0.87013   0.57578   1.000
    H32     H    0.35659   0.00303   0.18655   1.000
    H33     H    0.35665   0.50291   0.18649   1.000
    H34     H    0.85661   0.00303   0.18655   1.000
    H35     H    0.85667   0.50291   0.18649   1.000
    H36     H    0.13488   0.47341   0.05330   1.000
    H37     H    0.13477   0.97327   0.05324   1.000
    H38     H    0.63489   0.47341   0.05336   1.000
    H39     H    0.63479   0.97327   0.05323   1.000
    H40     H    0.16266   0.08221   0.10923   1.000
    H41     H    0.16300   0.58240   0.10935   1.000
    H42     H    0.66267   0.08221   0.10923   1.000
    H43     H    0.66301   0.58240   0.10935   1.000
    H44     H    0.28854   0.15063   0.20618   1.000
    H45     H    0.28896   0.65072   0.20619   1.000
    H46     H    0.78855   0.15063   0.20618   1.000
    H47     H    0.78897   0.65072   0.20619   1.000
    H48     H    0.08813   0.49628   0.33150   1.000
    H49     H    0.08802   0.99641   0.33166   1.000
    H50     H    0.58814   0.49628   0.33155   1.000
    H51     H    0.58803   0.99641   0.33166   1.000
    H52     H    0.26423   0.43724   0.40070   1.000
    H53     H    0.26432   0.93756   0.40060   1.000
    H54     H    0.76425   0.43724   0.40070   1.000
    H55     H    0.76434   0.93756   0.40067   1.000
    H56     H    0.36031   0.04577   0.43150   1.000
    H57     H    0.36036   0.54542   0.43144   1.000
    H58     H    0.86032   0.04578   0.43100   1.000
    H59     H    0.86037   0.54542   0.43143   1.000
    H60     H    0.31825   0.12985   0.42417   1.000
    H61     H    0.31845   0.62957   0.42390   1.000
    H62     H    0.81826   0.12985   0.42417   1.000
    H63     H    0.81846   0.62957   0.42390   1.000
    C64     C    0.20068   0.06858   0.37737   1.000
    C65     C    0.16924   0.41857   0.79833   1.000
    C66     C    0.16950   0.91855   0.79830   1.000
    C67     C    0.66926   0.41857   0.79833   1.000
    C68     C    0.66952   0.91855   0.79831   1.000
    C69     C    0.18563   0.47960   0.83036   1.000
    C70     C    0.18576   0.97955   0.83034   1.000
    C71     C    0.68565   0.47960   0.83035   1.000
    C72     C    0.68577   0.97955   0.83034   1.000
    C73     C    0.25638   0.01842   0.88318   1.000
    C74     C    0.25631   0.51840   0.88315   1.000
    C75     C    0.75639   0.01842   0.88318   1.000
    C76     C    0.75632   0.51840   0.88314   1.000
    C77     C    0.31062   0.49572   0.90500   1.000
    C78     C    0.31077   0.99582   0.90517   1.000
    C79     C    0.81063   0.49572   0.90508   1.000
    C80     C    0.81078   0.99582   0.90517   1.000
    C81     C    0.29448   0.43488   0.87363   1.000
    C82     C    0.29476   0.93500   0.87372   1.000
    C83     C    0.79449   0.43488   0.87363   1.000
    C84     C    0.79477   0.93500   0.87372   1.000
    C85     C    0.22439   0.39668   0.82002   1.000
    C86     C    0.22472   0.89674   0.82005   1.000
    C87     C    0.72440   0.39667   0.82000   1.000
    C88     C    0.72474   0.89674   0.82005   1.000
    C89     C    0.29919   0.43161   0.62270   1.000
    C90     C    0.29936   0.93140   0.62258   1.000
    C91     C    0.79921   0.43161   0.62277   1.000
    C92     C    0.79937   0.93140   0.62259   1.000
    C93     C    0.35249   0.49291   0.64483   1.000
    C94     C    0.35259   0.99273   0.64473   1.000
    C95     C    0.85250   0.49291   0.64483   1.000
    C96     C    0.85260   0.99273   0.64473   1.000
    C97     C    0.32991   0.03983   0.63458   1.000
    C98     C    0.32991   0.54005   0.63457   1.000
    C99     C    0.82992   0.03983   0.63459   1.000
    C100    C    0.82993   0.54005   0.63458   1.000
    C101    C    0.25278   0.02542   0.60739   1.000
    C102    C    0.25280   0.52570   0.60736   1.000
    C103    C    0.75280   0.02542   0.60738   1.000
    C104    C    0.75282   0.52570   0.60730   1.000
    C105    C    0.19944   0.46508   0.58902   1.000
    C106    C    0.19950   0.96477   0.58895   1.000
    C107    C    0.69945   0.46508   0.58902   1.000
    C108    C    0.69951   0.96477   0.58895   1.000
    C109    C    0.22248   0.41793   0.59416   1.000
    C110    C    0.22263   0.91766   0.59397   1.000
    C111    C    0.72249   0.41793   0.59416   1.000
    C112    C    0.72264   0.91766   0.59397   1.000
    C113    C    0.33054   0.08143   0.20164   1.000
    C114    C    0.33080   0.58141   0.20160   1.000
    C115    C    0.83055   0.08143   0.20163   1.000
    C116    C    0.83081   0.58141   0.20162   1.000
    C117    C    0.31428   0.02043   0.16961   1.000
    C118    C    0.31441   0.52038   0.16959   1.000
    C119    C    0.81429   0.02043   0.16961   1.000
    C120    C    0.81442   0.52038   0.16959   1.000
    C121    C    0.24373   0.48158   0.11680   1.000
    C122    C    0.24366   0.98157   0.11677   1.000
    C123    C    0.74374   0.48158   0.11680   1.000
    C124    C    0.74367   0.98156   0.11677   1.000
    C125    C    0.18927   0.00416   0.09478   1.000
    C126    C    0.18942   0.50426   0.09480   1.000
    C127    C    0.68929   0.00416   0.09478   1.000
    C128    C    0.68944   0.50426   0.09480   1.000
    C129    C    0.20529   0.06498   0.12620   1.000
    C130    C    0.20557   0.56510   0.12632   1.000
    C131    C    0.70530   0.06498   0.12623   1.000
    C132    C    0.70558   0.56510   0.12632   1.000
    C133    C    0.27532   0.10324   0.17990   1.000
    C134    C    0.27565   0.60330   0.17993   1.000
    C135    C    0.77533   0.10324   0.17990   1.000
    C136    C    0.77567   0.60330   0.17993   1.000
    C137    C    0.20085   0.56837   0.37719   1.000
    C138    C    0.70069   0.06858   0.37736   1.000
    C139    C    0.70086   0.56837   0.37710   1.000
    C140    C    0.14746   0.00725   0.35520   1.000
    C141    C    0.14755   0.50707   0.35511   1.000
    C142    C    0.64747   0.00725   0.35522   1.000
    C143    C    0.64756   0.50707   0.35512   1.000
    C144    C    0.17013   0.45993   0.36530   1.000
    C145    C    0.17013   0.96015   0.36530   1.000
    C146    C    0.67014   0.45993   0.36537   1.000
    C147    C    0.67014   0.96015   0.36537   1.000
    C148    C    0.24724   0.47428   0.39200   1.000
    C149    C    0.24726   0.97457   0.39257   1.000
    C150    C    0.74725   0.47428   0.39260   1.000
    C151    C    0.74727   0.97457   0.39257   1.000
    C152    C    0.30054   0.03521   0.41100   1.000
    C153    C    0.30060   0.53490   0.41093   1.000
    C154    C    0.80056   0.03521   0.41100   1.000
    C155    C    0.80061   0.53490   0.41093   1.000
    C156    C    0.27741   0.08232   0.40597   1.000
    C157    C    0.27756   0.58205   0.40578   1.000
    C158    C    0.77743   0.08232   0.40590   1.000
    C159    C    0.77757   0.58205   0.40579   1.000
loop_
    _geom_bond_atom_site_label_1
    _geom_bond_atom_site_label_2
    _geom_bond_distance
    _geom_bond_site_symmetry_2
    _ccdc_geom_bond_type
    H39    C127      1.08895  1_565   S
    H37    C125      1.08889  1_565   S
    H36    C126      1.08895      .   S
    H38    C128      1.08860      .   S
    C127   C124      1.40229  1_545   S
    C127   C131      1.39435      .   S
    C125   C122      1.40229  1_545   S
    C125   C129      1.39425      .   S
    C128   C123      1.40243      .   S
    C128   C132      1.39457      .   S
    C126   C121      1.40243      .   S
    C126   C130      1.39457      .   S
    H42    C131      1.09016      .   S
    H40    C129      1.09006      .   S
    H43    C132      1.09019      .   S
    H41    C130      1.09017      .   S
    C122   C117      1.39897  1_565   S
    C124   C119      1.39896  1_565   S
    C123   C120      1.39902      .   S
    C121   C118      1.39902      .   S
    C129   C133      1.39344      .   S
    C131   C135      1.39325      .   S
    C132   C136      1.39326      .   S
    C130   C134      1.39326      .   S
    C120   H35       1.08733      .   S
    C120   C116      1.39901      .   S
    C118   H33       1.08733      .   S
    C118   C114      1.39897      .   S
    C119   H34       1.08733      .   S
    C119   C115      1.39901      .   S
    C117   H32       1.08733      .   S
    C117   C113      1.39904      .   S
    C133   C113      1.40254      .   S
    C133   H44       1.08886      .   S
    C135   C115      1.40252      .   S
    C135   H46       1.08886      .   S
    C134   C114      1.40255      .   S
    C134   H45       1.08886      .   S
    C136   C116      1.40260      .   S
    C136   H47       1.08887      .   S
    H48    C141      1.08825      .   S
    H50    C143      1.08813      .   S
    H51    C142      1.08811  1_565   S
    H49    C140      1.08808  1_565   S
    C141   C144      1.39748      .   S
    C141   C137      1.40488      .   S
    C143   C146      1.39765      .   S
    C143   C139      1.40485      .   S
    C140   C145      1.39755  1_545   S
    C140   C64       1.40499      .   S
    C142   C147      1.39769  1_545   S
    C142   C138      1.40498      .   S
    C144   C148      1.40199      .   S
    C145   C149      1.40307      .   S
    C146   C150      1.40296      .   S
    C147   C151      1.40295      .   S
    C139   C159      1.40222      .   S
    C137   C157      1.40204      .   S
    C138   C158      1.40194      .   S
    C64    C156      1.40207      .   S
    C148   H52       1.09056      .   S
    C148   C153      1.39277      .   S
    C151   H55       1.08927      .   S
    C151   C154      1.39279  1_565   S
    C149   H53       1.08911      .   S
    C149   C152      1.39279  1_565   S
    C150   H54       1.08906      .   S
    C150   C155      1.39288      .   S
    C157   C153      1.39359      .   S
    C157   H61       1.08717      .   S
    C159   C155      1.39361      .   S
    C159   H63       1.08717      .   S
    C158   C154      1.39375      .   S
    C158   H62       1.08724      .   S
    C156   C152      1.39367      .   S
    C156   H60       1.08718      .   S
    C153   H57       1.08937      .   S
    C155   H59       1.08935      .   S
    C154   H58       1.08850      .   S
    C152   H56       1.08936      .   S
    H25    C106      1.08934      .   S
    H27    C108      1.08934      .   S
    H24    C105      1.08936      .   S
    H26    C107      1.08936      .   S
    H31    C112      1.08717      .   S
    H29    C110      1.08717      .   S
    H28    C109      1.08719      .   S
    H30    C111      1.08716      .   S
    C108   C112      1.39366      .   S
    C108   C103      1.39279  1_565   S
    C106   C110      1.39366      .   S
    C106   C101      1.39278  1_565   S
    C105   C109      1.39363      .   S
    C105   C102      1.39287      .   S
    C107   C111      1.39362      .   S
    C107   C104      1.39289      .   S
    C112   C92       1.40210      .   S
    C110   C90       1.40211      .   S
    C111   C91       1.40206      .   S
    C109   C89       1.40192      .   S
    H21    C102      1.08928      .   S
    H23    C104      1.08914      .   S
    H22    C103      1.08927      .   S
    H20    C101      1.08930      .   S
    C104   C100      1.40305      .   S
    C102   C98       1.40293      .   S
    C103   C99       1.40296      .   S
    C101   C97       1.40294      .   S
    C90    C94       1.40499      .   S
    C92    C96       1.40498      .   S
    C89    C93       1.40490      .   S
    C91    C95       1.40489      .   S
    C98    C93       1.39768      .   S
    C97    C94       1.39769  1_545   S
    C100   C95       1.39767      .   S
    C99    C96       1.39767  1_545   S
    C96    H18       1.08813  1_565   S
    C94    H16       1.08813  1_565   S
    C93    H17       1.08815      .   S
    C95    H19       1.08813      .   S
    H14    C87       1.08879      .   S
    H12    C85       1.08886      .   S
    H15    C88       1.08889      .   S
    H13    C86       1.08887      .   S
    C66    C86       1.40255      .   S
    C66    C70       1.39907      .   S
    C68    C88       1.40251      .   S
    C68    C72       1.39906      .   S
    C65    C85       1.40260      .   S
    C65    C69       1.39901      .   S
    C67    C87       1.40253      .   S
    C67    C71       1.39901      .   S
    H3     C72       1.08733      .   S
    H1     C70       1.08735      .   S
    H2     C71       1.08730      .   S
    H0     C69       1.08734      .   S
    C87    C83       1.39338      .   S
    C85    C81       1.39326      .   S
    C88    C84       1.39326      .   S
    C86    C82       1.39325      .   S
    C70    C73       1.39896  1_565   S
    C72    C75       1.39895  1_565   S
    C71    C76       1.39901      .   S
    C69    C74       1.39903      .   S
    C83    H10       1.09017      .   S
    C83    C79       1.39434      .   S
    C81    H8        1.09017      .   S
    C81    C77       1.39412      .   S
    C82    H9        1.09016      .   S
    C82    C78       1.39436      .   S
    C84    H11       1.09014      .   S
    C84    C80       1.39436      .   S
    C76    C79       1.40228      .   S
    C74    C77       1.40200      .   S
    C73    C78       1.40229  1_545   S
    C75    C80       1.40229  1_545   S
    C77    H5        1.08948      .   S
    C79    H7        1.08896      .   S
    C80    H6        1.08884  1_565   S
    C78    H4        1.08889  1_565   S
