# CIF file generated by openbabel 2.4.90, see http://openbabel.sf.net
data_I
_chemical_name_common ''
_cell_length_a 19.673
_cell_length_b 24.252
_cell_length_c 15.389
_cell_angle_alpha 96.079
_cell_angle_beta 98.001
_cell_angle_gamma 113.54
_space_group_name_H-M_alt 'P 1'
_space_group_name_Hall 'P 1'
loop_
    _symmetry_equiv_pos_as_xyz
    x,y,z
loop_
    _atom_site_label
    _atom_site_type_symbol
    _atom_site_fract_x
    _atom_site_fract_y
    _atom_site_fract_z
    _atom_site_occupancy
    Zn0     Zn   0.49606   0.78800   0.29252   1.000
    Zn1     Zn   0.99573   0.28795   0.29251   1.000
    Zn2     Zn   0.99606   0.78800   0.29252   1.000
    Zn3     Zn   0.44299   0.34186   0.66994   1.000
    Zn4     Zn   0.44323   0.84175   0.66992   1.000
    Zn5     Zn   0.94300   0.34186   0.66994   1.000
    Zn6     Zn   0.94324   0.84175   0.66992   1.000
    Zn7     Zn   0.22693   0.30838   0.06664   1.000
    Zn8     Zn   0.22722   0.80845   0.06669   1.000
    Zn9     Zn   0.72694   0.30838   0.06664   1.000
    Zn10    Zn   0.72723   0.80845   0.06669   1.000
    Zn11    Zn   0.00399   0.21198   0.70744   1.000
    Zn12    Zn   0.00433   0.71203   0.70740   1.000
    Zn13    Zn   0.50400   0.21198   0.70744   1.000
    Zn14    Zn   0.50433   0.71203   0.70745   1.000
    Zn15    Zn   0.05681   0.15823   0.33004   1.000
    Zn16    Zn   0.05705   0.65812   0.33001   1.000
    Zn17    Zn   0.55682   0.15823   0.33004   1.000
    Zn18    Zn   0.55706   0.65812   0.33001   1.000
    Zn19    Zn   0.27282   0.19153   0.93327   1.000
    Zn20    Zn   0.27311   0.69160   0.93332   1.000
    Zn21    Zn   0.77284   0.19153   0.93327   1.000
    Zn22    Zn   0.77312   0.69160   0.93332   1.000
    Zn23    Zn   0.24976   0.25022   0.49995   1.000
    Zn24    Zn   0.25030   0.74975   0.50001   1.000
    Zn25    Zn   0.74977   0.25021   0.49995   1.000
    Zn26    Zn   0.75031   0.74975   0.50001   1.000
    Zn27    Zn   0.49572   0.28795   0.29251   1.000
    H28     H    0.09118   0.32499   0.14082   1.000
    H29     H    0.09151   0.82501   0.14092   1.000
    H30     H    0.59119   0.32499   0.14082   1.000
    H31     H    0.59152   0.82501   0.14092   1.000
    H32     H    0.18356   0.20167   0.20458   1.000
    H33     H    0.18384   0.70166   0.20465   1.000
    H34     H    0.68357   0.20167   0.20458   1.000
    H35     H    0.68385   0.70166   0.20465   1.000
    H36     H    0.03852   0.34135   0.51507   1.000
    H37     H    0.03899   0.84142   0.51511   1.000
    H38     H    0.53852   0.34135   0.51507   1.000
    H39     H    0.53899   0.84142   0.51511   1.000
    H40     H    0.33070   0.23137   0.34352   1.000
    H41     H    0.33127   0.73087   0.34373   1.000
    H42     H    0.83071   0.23137   0.34352   1.000
    H43     H    0.83128   0.73087   0.34370   1.000
    H44     H    0.37622   0.34766   0.22199   1.000
    H45     H    0.37655   0.84771   0.22208   1.000
    H46     H    0.87623   0.34767   0.22190   1.000
    H47     H    0.87657   0.84771   0.22208   1.000
    H48     H    0.39921   0.19504   0.09536   1.000
    H49     H    0.39946   0.69507   0.09538   1.000
    H50     H    0.89922   0.19504   0.09536   1.000
    H51     H    0.89947   0.69507   0.09538   1.000
    C52     C    0.82513   0.88175   0.63048   1.000
    C53     C    0.38740   0.10499   0.64877   1.000
    C54     C    0.38752   0.60517   0.64871   1.000
    C55     C    0.88743   0.10499   0.64874   1.000
    H56     H    0.40853   0.17497   0.85904   1.000
    H57     H    0.40886   0.67499   0.85914   1.000
    H58     H    0.90855   0.17497   0.85904   1.000
    H59     H    0.90888   0.67499   0.85914   1.000
    H60     H    0.31620   0.29832   0.79531   1.000
    H61     H    0.31648   0.79831   0.79538   1.000
    H62     H    0.81621   0.29832   0.79531   1.000
    H63     H    0.81649   0.79831   0.79538   1.000
    H64     H    0.46107   0.15856   0.48485   1.000
    H65     H    0.46154   0.65863   0.48489   1.000
    H66     H    0.96107   0.15856   0.48485   1.000
    H67     H    0.96154   0.65863   0.48489   1.000
    C68     C    0.22473   0.41568   0.08605   1.000
    C69     C    0.22477   0.91568   0.08600   1.000
    C70     C    0.72474   0.41568   0.08605   1.000
    C71     C    0.72479   0.91568   0.08600   1.000
    H72     H    0.16879   0.26909   0.65620   1.000
    H73     H    0.16936   0.76860   0.65640   1.000
    H74     H    0.66880   0.26909   0.65624   1.000
    H75     H    0.66937   0.76860   0.65644   1.000
    H76     H    0.12349   0.15227   0.77787   1.000
    H77     H    0.12382   0.65232   0.77797   1.000
    H78     H    0.62350   0.15227   0.77787   1.000
    H79     H    0.62384   0.65232   0.77797   1.000
    H80     H    0.10058   0.30491   0.90457   1.000
    H81     H    0.10084   0.80494   0.90460   1.000
    H82     H    0.60060   0.30491   0.90457   1.000
    H83     H    0.60085   0.80494   0.90460   1.000
    C84     C    0.09387   0.37691   0.74147   1.000
    C85     C    0.09418   0.87682   0.74141   1.000
    C86     C    0.59388   0.37691   0.74147   1.000
    C87     C    0.59419   0.87682   0.74142   1.000
    C88     C    0.27526   0.08430   0.91393   1.000
    C89     C    0.27530   0.58430   0.91390   1.000
    C90     C    0.77528   0.08430   0.91393   1.000
    C91     C    0.77532   0.58430   0.91390   1.000
    C92     C    0.32484   0.38192   0.63074   1.000
    C93     C    0.32511   0.88175   0.63050   1.000
    C94     C    0.82486   0.38192   0.63072   1.000
    O95     O    0.22203   0.60238   0.89270   1.000
    O96     O    0.72194   0.10230   0.89268   1.000
    O97     O    0.72204   0.60237   0.89270   1.000
    O98     O    0.34029   0.12066   0.95623   1.000
    O99     O    0.34036   0.62062   0.95600   1.000
    O100    O    0.84030   0.12066   0.95623   1.000
    O101    O    0.84037   0.62062   0.95619   1.000
    O102    O    0.27909   0.32637   0.59642   1.000
    C103    C    0.88754   0.60516   0.64870   1.000
    C104    C    0.10161   0.28953   0.16986   1.000
    C105    C    0.10193   0.78954   0.16996   1.000
    C106    C    0.60162   0.28953   0.16986   1.000
    C107    C    0.60195   0.78954   0.16996   1.000
    C108    C    0.14965   0.22763   0.20236   1.000
    C109    C    0.14994   0.72762   0.20242   1.000
    C110    C    0.64967   0.22763   0.20236   1.000
    C111    C    0.64996   0.72762   0.20243   1.000
    C112    C    0.47834   0.31596   0.48895   1.000
    C113    C    0.47882   0.81586   0.48903   1.000
    C114    C    0.97835   0.31596   0.48895   1.000
    C115    C    0.97883   0.81586   0.48903   1.000
    C116    C    0.37297   0.26047   0.40114   1.000
    C117    C    0.37350   0.76008   0.40131   1.000
    C118    C    0.87298   0.26047   0.40114   1.000
    C119    C    0.87351   0.76008   0.40131   1.000
    C120    C    0.36777   0.30740   0.17570   1.000
    C121    C    0.36809   0.80746   0.17583   1.000
    C122    C    0.86778   0.30740   0.17570   1.000
    C123    C    0.86810   0.80745   0.17583   1.000
    C124    C    0.38050   0.23061   0.11161   1.000
    C125    C    0.38078   0.73065   0.11165   1.000
    C126    C    0.88052   0.23061   0.11161   1.000
    C127    C    0.88079   0.73065   0.11165   1.000
    C128    C    0.40586   0.12316   0.25854   1.000
    C129    C    0.40618   0.62306   0.25840   1.000
    C130    C    0.90587   0.12316   0.25854   1.000
    C131    C    0.90619   0.62306   0.25848   1.000
    C132    C    0.17494   0.11823   0.36945   1.000
    C133    C    0.17520   0.61806   0.36919   1.000
    C134    C    0.67495   0.11823   0.36945   1.000
    C135    C    0.67520   0.61806   0.36922   1.000
    C136    C    0.11253   0.39481   0.35123   1.000
    C137    C    0.11264   0.89499   0.35119   1.000
    C138    C    0.61253   0.39482   0.35126   1.000
    C139    C    0.61265   0.89499   0.35120   1.000
    C140    C    0.39811   0.21044   0.83000   1.000
    C141    C    0.39843   0.71045   0.83010   1.000
    C142    C    0.89812   0.21044   0.83000   1.000
    C143    C    0.89844   0.71045   0.83010   1.000
    C144    C    0.35010   0.27236   0.79753   1.000
    C145    C    0.35039   0.77235   0.79760   1.000
    C146    C    0.85011   0.27236   0.79753   1.000
    C147    C    0.85040   0.77235   0.79760   1.000
    C148    C    0.02123   0.18411   0.51093   1.000
    C149    C    0.02171   0.68401   0.51101   1.000
    C150    C    0.52124   0.18411   0.51093   1.000
    C151    C    0.52172   0.68401   0.51101   1.000
    C152    C    0.12655   0.23989   0.59865   1.000
    C153    C    0.12708   0.73950   0.59882   1.000
    C154    C    0.62656   0.23989   0.59865   1.000
    C155    C    0.62709   0.73950   0.59882   1.000
    C156    C    0.13196   0.19253   0.82413   1.000
    C157    C    0.13227   0.69258   0.82420   1.000
    C158    C    0.63197   0.19253   0.82413   1.000
    C159    C    0.63228   0.69258   0.82420   1.000
    C160    C    0.11926   0.26933   0.88831   1.000
    C161    C    0.11954   0.76938   0.88834   1.000
    C162    C    0.61927   0.26934   0.88830   1.000
    C163    C    0.61955   0.76938   0.88834   1.000
    N164    N    0.09653   0.22056   0.25101   1.000
    N165    N    0.09681   0.72055   0.25108   1.000
    N166    N    0.59654   0.22056   0.25101   1.000
    N167    N    0.59682   0.72055   0.25108   1.000
    N168    N    0.06548   0.26037   0.22962   1.000
    N169    N    0.06580   0.76038   0.22970   1.000
    N170    N    0.56549   0.26037   0.22962   1.000
    N171    N    0.56581   0.76038   0.22970   1.000
    N172    N    0.15484   0.27038   0.15051   1.000
    N173    N    0.15516   0.77038   0.15059   1.000
    N174    N    0.65485   0.27038   0.15051   1.000
    N175    N    0.65517   0.77038   0.15059   1.000
    N176    N    0.42502   0.30908   0.53720   1.000
    N177    N    0.42550   0.80882   0.53732   1.000
    N178    N    0.92504   0.30908   0.53720   1.000
    N179    N    0.92551   0.80882   0.53732   1.000
    N180    N    0.35659   0.27335   0.48009   1.000
    N181    N    0.35711   0.77290   0.48028   1.000
    N182    N    0.85660   0.27335   0.48009   1.000
    N183    N    0.85712   0.77290   0.48020   1.000
    N184    N    0.44812   0.28654   0.40355   1.000
    N185    N    0.44864   0.78636   0.40367   1.000
    N186    N    0.94813   0.28654   0.40355   1.000
    N187    N    0.94865   0.78636   0.40367   1.000
    N188    N    0.40961   0.27483   0.18525   1.000
    N189    N    0.40989   0.77485   0.18531   1.000
    N190    N    0.90962   0.27483   0.18525   1.000
    N191    N    0.90990   0.77485   0.18531   1.000
    N192    N    0.32339   0.23510   0.05950   1.000
    N193    N    0.32370   0.73518   0.05950   1.000
    N194    N    0.82340   0.23510   0.05950   1.000
    N195    N    0.82371   0.73518   0.05953   1.000
    N196    N    0.31484   0.28459   0.10109   1.000
    N197    N    0.31517   0.78468   0.10110   1.000
    N198    N    0.81485   0.28459   0.10109   1.000
    N199    N    0.81518   0.78468   0.10114   1.000
    N200    N    0.40323   0.27943   0.74888   1.000
    N201    N    0.40352   0.77942   0.74895   1.000
    N202    N    0.90324   0.27943   0.74888   1.000
    N203    N    0.90353   0.77942   0.74895   1.000
    N204    N    0.43424   0.23960   0.77025   1.000
    N205    N    0.43456   0.73961   0.77034   1.000
    N206    N    0.93425   0.23960   0.77025   1.000
    N207    N    0.93457   0.73961   0.77034   1.000
    N208    N    0.34489   0.22960   0.84937   1.000
    N209    N    0.34520   0.72960   0.84945   1.000
    N210    N    0.84490   0.22960   0.84937   1.000
    N211    N    0.84521   0.72960   0.84945   1.000
    N212    N    0.07455   0.19115   0.46264   1.000
    N213    N    0.07503   0.69089   0.46276   1.000
    N214    N    0.57456   0.19115   0.46264   1.000
    N215    N    0.57504   0.69089   0.46270   1.000
    N216    N    0.14295   0.22707   0.51969   1.000
    N217    N    0.14346   0.72662   0.51987   1.000
    N218    N    0.64296   0.22706   0.51969   1.000
    N219    N    0.64347   0.72662   0.51987   1.000
    N220    N    0.05141   0.21362   0.59629   1.000
    N221    N    0.05193   0.71344   0.59641   1.000
    N222    N    0.55142   0.21361   0.59629   1.000
    N223    N    0.55194   0.71344   0.59641   1.000
    N224    N    0.09015   0.22513   0.81464   1.000
    N225    N    0.09043   0.72515   0.81471   1.000
    N226    N    0.59016   0.22513   0.81464   1.000
    N227    N    0.59044   0.72515   0.81471   1.000
    N228    N    0.17634   0.26481   0.94042   1.000
    N229    N    0.17665   0.76489   0.94046   1.000
    N230    N    0.67636   0.26481   0.94042   1.000
    N231    N    0.67666   0.76489   0.94046   1.000
    N232    N    0.18487   0.21530   0.89881   1.000
    N233    N    0.18520   0.71539   0.89887   1.000
    N234    N    0.68488   0.21531   0.89881   1.000
    N235    N    0.68521   0.71539   0.89887   1.000
    O236    O    0.07910   0.32166   0.71460   1.000
    O237    O    0.07955   0.82159   0.71459   1.000
    O238    O    0.57911   0.32166   0.71461   1.000
    O239    O    0.57956   0.82159   0.71459   1.000
    O240    O    0.04669   0.40096   0.72266   1.000
    O241    O    0.04694   0.90080   0.72250   1.000
    O242    O    0.54670   0.40096   0.72266   1.000
    O243    O    0.54695   0.90080   0.72255   1.000
    O244    O    0.22192   0.10230   0.89268   1.000
    O245    O    0.27945   0.82619   0.59608   1.000
    O246    O    0.77909   0.32637   0.59643   1.000
    O247    O    0.77946   0.82619   0.59609   1.000
    O248    O    0.39187   0.39756   0.67400   1.000
    O249    O    0.39211   0.89743   0.67387   1.000
    O250    O    0.89187   0.39756   0.67401   1.000
    O251    O    0.89212   0.89743   0.67388   1.000
    O252    O    0.45053   0.11971   0.70396   1.000
    O253    O    0.45061   0.61979   0.70393   1.000
    O254    O    0.95054   0.11971   0.70397   1.000
    O255    O    0.95062   0.61979   0.70394   1.000
    O256    O    0.37361   0.14275   0.60745   1.000
    O257    O    0.37388   0.64297   0.60735   1.000
    O258    O    0.87361   0.14275   0.60746   1.000
    O259    O    0.87389   0.64297   0.60736   1.000
    O260    O    0.42050   0.17839   0.28537   1.000
    O261    O    0.42095   0.67832   0.28534   1.000
    O262    O    0.92052   0.17839   0.28537   1.000
    O263    O    0.92096   0.67832   0.28535   1.000
    O264    O    0.45310   0.09918   0.27739   1.000
    O265    O    0.45336   0.59902   0.27728   1.000
    O266    O    0.95311   0.09918   0.27739   1.000
    O267    O    0.95337   0.59902   0.27720   1.000
    O268    O    0.27801   0.39760   0.10725   1.000
    O269    O    0.27811   0.89768   0.10727   1.000
    O270    O    0.77802   0.39760   0.10726   1.000
    O271    O    0.77813   0.89768   0.10727   1.000
    O272    O    0.15968   0.37936   0.04370   1.000
    O273    O    0.15975   0.87932   0.04372   1.000
    O274    O    0.65969   0.37936   0.04376   1.000
    O275    O    0.65976   0.87932   0.04372   1.000
    O276    O    0.22060   0.17379   0.40386   1.000
    O277    O    0.22096   0.67361   0.40352   1.000
    O278    O    0.72061   0.17379   0.40386   1.000
    O279    O    0.72097   0.67361   0.40351   1.000
    O280    O    0.10793   0.10255   0.32608   1.000
    O281    O    0.10817   0.60242   0.32595   1.000
    O282    O    0.60794   0.10255   0.32600   1.000
    O283    O    0.60819   0.60242   0.32594   1.000
    O284    O    0.04943   0.38019   0.29603   1.000
    O285    O    0.04951   0.88027   0.29600   1.000
    O286    O    0.54945   0.38018   0.29602   1.000
    O287    O    0.54953   0.88026   0.29600   1.000
    O288    O    0.12617   0.35702   0.39262   1.000
    O289    O    0.12644   0.85723   0.39250   1.000
    O290    O    0.62619   0.35701   0.39260   1.000
    O291    O    0.62646   0.85723   0.39250   1.000
loop_
    _geom_bond_atom_site_label_1
    _geom_bond_atom_site_label_2
    _geom_bond_distance
    _geom_bond_site_symmetry_2
    _ccdc_geom_bond_type
    O272   C68       1.25858      .   S
    O275   C71       1.25821      .   S
    O273   C69       1.25821      .   S
    O274   C70       1.25834      .   S
    N192   N196      1.38101      .   S
    N192   C124      1.33522      .   S
    N192   Zn19      2.01671  1_554   S
    N193   N197      1.38097      .   S
    N193   C125      1.33551      .   S
    N193   Zn20      2.01621  1_554   S
    N194   N198      1.38100      .   S
    N194   C126      1.33524      .   S
    N194   Zn21      2.01671  1_554   S
    N195   N199      1.38105      .   S
    N195   C127      1.33527      .   S
    N195   Zn22      2.01660  1_554   S
    Zn9    N198      2.05220      .   S
    Zn9    O270      1.97098      .   S
    Zn9    N174      2.06006      .   S
    Zn9    N230      2.01669  1_554   S
    Zn7    N196      2.05218      .   S
    Zn7    O268      1.97098      .   S
    Zn7    N172      2.06006      .   S
    Zn7    N228      2.01670  1_554   S
    Zn10   N199      2.05272      .   S
    Zn10   O271      1.97085      .   S
    Zn10   N175      2.06052      .   S
    Zn10   N231      2.01672  1_554   S
    Zn8    N197      2.05263      .   S
    Zn8    O269      1.97085      .   S
    Zn8    N173      2.06053      .   S
    Zn8    N229      2.01672  1_554   S
    C69    O269      1.30368      .   S
    C71    O271      1.30366      .   S
    C68    O268      1.30357      .   S
    C70    O270      1.30358      .   S
    H50    C126      1.08412      .   S
    H48    C124      1.08413      .   S
    H49    C125      1.08413      .   S
    H51    C127      1.08413      .   S
    N196   C120      1.33459      .   S
    N198   C122      1.33458      .   S
    N197   C121      1.33572      .   S
    N199   C123      1.33530      .   S
    C124   N188      1.35415      .   S
    C126   N190      1.35415      .   S
    C127   N191      1.35409      .   S
    C125   N189      1.35409      .   S
    H28    C104      1.08552      .   S
    H30    C106      1.08552      .   S
    H29    C105      1.08555      .   S
    H31    C107      1.08558      .   S
    N172   C104      1.35914      .   S
    N172   C108      1.35463      .   S
    N174   C106      1.35914      .   S
    N174   C110      1.35463      .   S
    N173   C105      1.35916      .   S
    N173   C109      1.35461      .   S
    N175   C107      1.35914      .   S
    N175   C111      1.35473      .   S
    C106   N170      1.33010      .   S
    C104   N168      1.33008      .   S
    C105   N169      1.32997      .   S
    C107   N171      1.32997      .   S
    C122   N190      1.35415      .   S
    C122   H46       1.08489      .   S
    C120   N188      1.35413      .   S
    C120   H44       1.08562      .   S
    C123   N191      1.35410      .   S
    C123   H47       1.08509      .   S
    C121   N189      1.35412      .   S
    C121   H45       1.08508      .   S
    N188   Zn27      2.09168      .   S
    N190   Zn1       2.09162      .   S
    N191   Zn2       2.09164      .   S
    N189   Zn0       2.09169      .   S
    C110   H34       1.08444      .   S
    C110   N166      1.33574      .   S
    C108   H32       1.08442      .   S
    C108   N164      1.33572      .   S
    C109   H33       1.08443      .   S
    C109   N165      1.33585      .   S
    C111   H35       1.08441      .   S
    C111   N167      1.33579      .   S
    N168   N164      1.37689      .   S
    N168   Zn1       2.05753  1_455   S
    N170   N166      1.37690      .   S
    N170   Zn27      2.05784      .   S
    N169   N165      1.37700      .   S
    N169   Zn2       2.05704  1_455   S
    N171   N167      1.37702      .   S
    N171   Zn0       2.05735      .   S
    N166   Zn17      2.02116      .   S
    N164   Zn15      2.02114      .   S
    N167   Zn18      2.02177      .   S
    N165   Zn16      2.02175      .   S
    C129   O265      1.29586      .   S
    C129   O261      1.26084      .   S
    C131   O267      1.29539      .   S
    C131   O263      1.26062      .   S
    C128   O264      1.29556      .   S
    C128   O260      1.26065      .   S
    C130   O266      1.29556      .   S
    C130   O262      1.26064      .   S
    O267   Zn16      1.95763  1_655   S
    O265   Zn18      1.95758      .   S
    O266   Zn15      1.95700  1_655   S
    O264   Zn17      1.95720      .   S
    Zn1    O284      2.04777  1_655   S
    Zn1    N186      2.05667      .   S
    Zn27   O286      2.04778      .   S
    Zn27   N184      2.05670      .   S
    Zn0    O287      2.04811      .   S
    Zn0    N185      2.05583      .   S
    Zn2    O285      2.04813  1_655   S
    Zn2    N187      2.05582      .   S
    O287   C139      1.29579      .   S
    O285   C137      1.29582      .   S
    O286   C138      1.29577      .   S
    O284   C136      1.29581      .   S
    O283   Zn18      1.98109      .   S
    O283   C135      1.27604      .   S
    O281   Zn16      1.98105      .   S
    O281   C133      1.27602      .   S
    O282   Zn17      1.98069      .   S
    O282   C134      1.27658      .   S
    O280   Zn15      1.98062      .   S
    O280   C132      1.27619      .   S
    Zn16   N213      2.03976      .   S
    Zn18   N215      2.03890      .   S
    Zn15   N212      2.03897      .   S
    Zn17   N214      2.03897      .   S
    H42    C118      1.08136      .   S
    H40    C116      1.08137      .   S
    H43    C119      1.08162      .   S
    H41    C117      1.08133      .   S
    C137   O289      1.26100      .   S
    C139   O291      1.26103      .   S
    C136   O288      1.26108      .   S
    C138   O290      1.26107      .   S
    C133   O277      1.28557      .   S
    C135   O279      1.28555      .   S
    C132   O276      1.28543      .   S
    C134   O278      1.28547      .   S
    C118   N186      1.34912      .   S
    C118   N182      1.33665      .   S
    C116   N184      1.34913      .   S
    C116   N180      1.33665      .   S
    C119   N187      1.34911      .   S
    C119   N183      1.33561      .   S
    C117   N185      1.34911      .   S
    C117   N181      1.33673      .   S
    O279   Zn26      2.06823      .   S
    O277   Zn24      2.06811      .   S
    N184   C112      1.35456      .   S
    N186   C114      1.35457      .   S
    N185   C113      1.35445      .   S
    N187   C115      1.35445      .   S
    O278   Zn25      2.07009      .   S
    O276   Zn23      2.07010      .   S
    N212   C148      1.33518      .   S
    N212   N216      1.38305      .   S
    N214   C150      1.33518      .   S
    N214   N218      1.38305      .   S
    N215   C151      1.33570      .   S
    N215   N219      1.38366      .   S
    N213   C149      1.33509      .   S
    N213   N217      1.38324      .   S
    N182   Zn25      2.02442      .   S
    N182   N178      1.38325      .   S
    N180   Zn23      2.02445      .   S
    N180   N176      1.38324      .   S
    N183   Zn26      2.02382      .   S
    N183   N179      1.38350      .   S
    N181   Zn24      2.02342      .   S
    N181   N177      1.38298      .   S
    H64    C150      1.08414      .   S
    H66    C148      1.08396  1_655   S
    H67    C149      1.08396  1_655   S
    H65    C151      1.08415      .   S
    C114   H36       1.08396  1_655   S
    C114   N178      1.33509      .   S
    C112   H38       1.08414      .   S
    C112   N176      1.33507      .   S
    C113   H39       1.08414      .   S
    C113   N177      1.33518      .   S
    C115   H37       1.08395  1_655   S
    C115   N179      1.33520      .   S
    Zn25   N218      2.02352      .   S
    Zn25   O246      2.06830      .   S
    Zn23   N216      2.02350      .   S
    Zn23   O102      2.06822      .   S
    Zn26   N219      2.02447      .   S
    Zn26   O247      2.07022      .   S
    Zn24   N217      2.02447      .   S
    Zn24   O245      2.07018      .   S
    C148   N220      1.35445      .   S
    C150   N222      1.35444      .   S
    C149   N221      1.35455      .   S
    C151   N223      1.35455      .   S
    N216   C152      1.33661      .   S
    N218   C154      1.33661      .   S
    N217   C153      1.33665      .   S
    N219   C155      1.33665      .   S
    N178   Zn5       2.03968      .   S
    N176   Zn3       2.03969      .   S
    N179   Zn6       2.03901      .   S
    N177   Zn4       2.03902      .   S
    O245   C93       1.28542      .   S
    O247   C52       1.28544      .   S
    N220   C152      1.34912      .   S
    N220   Zn11      2.05590      .   S
    N222   C154      1.34912      .   S
    N222   Zn13      2.05595      .   S
    N223   C155      1.34913      .   S
    N223   Zn14      2.05680      .   S
    N221   C153      1.34913      .   S
    N221   Zn12      2.05609      .   S
    O102   C92       1.28554      .   S
    O246   C94       1.28552      .   S
    C154   H74       1.08143      .   S
    C152   H72       1.08102      .   S
    C155   H75       1.08137      .   S
    C153   H73       1.08096      .   S
    O257   C54       1.26100      .   S
    O259   C103      1.26108      .   S
    O256   C53       1.26108      .   S
    O258   C55       1.26104      .   S
    C52    O251      1.27619      .   S
    C93    O249      1.27619      .   S
    C94    O250      1.27607      .   S
    C92    O248      1.27605      .   S
    C103   O255      1.29576      .   S
    C54    O253      1.29579      .   S
    C55    O254      1.29585      .   S
    C53    O252      1.29580      .   S
    Zn4    O249      1.98067      .   S
    Zn4    O243      1.95716      .   S
    Zn4    N201      2.02109      .   S
    Zn6    O251      1.98064      .   S
    Zn6    O241      1.95684  1_655   S
    Zn6    N203      2.02108      .   S
    Zn3    O248      1.98106      .   S
    Zn3    O242      1.95759      .   S
    Zn3    N200      2.02184      .   S
    Zn5    O250      1.98105      .   S
    Zn5    O240      1.95739  1_655   S
    Zn5    N202      2.02184      .   S
    O253   Zn14      2.04777      .   S
    O255   Zn12      2.04791  1_655   S
    O252   Zn13      2.04818      .   S
    O254   Zn11      2.04817  1_655   S
    Zn12   N207      2.05796  1_455   S
    Zn12   N225      2.09212      .   S
    Zn11   N206      2.05700  1_455   S
    Zn11   N224      2.09155      .   S
    Zn13   N204      2.05730      .   S
    Zn13   N226      2.09160      .   S
    Zn14   N205      2.05785      .   S
    Zn14   N227      2.09167      .   S
    O239   C87       1.26064      .   S
    O237   C85       1.26064      .   S
    O236   C84       1.26063      .   S
    O238   C86       1.26060      .   S
    O241   C85       1.29569      .   S
    O243   C87       1.29557      .   S
    O242   C86       1.29561      .   S
    O240   C84       1.29564      .   S
    N202   N206      1.37695      .   S
    N202   C146      1.33576      .   S
    N200   N204      1.37696      .   S
    N200   C144      1.33578      .   S
    N203   N207      1.37692      .   S
    N203   C147      1.33571      .   S
    N201   N205      1.37691      .   S
    N201   C145      1.33576      .   S
    N204   C140      1.33008      .   S
    N206   C142      1.33006      .   S
    N207   C143      1.33009      .   S
    N205   C141      1.33014      .   S
    H76    C156      1.08516      .   S
    H78    C158      1.08515      .   S
    H77    C157      1.08511      .   S
    H79    C159      1.08512      .   S
    H62    C146      1.08441      .   S
    H60    C144      1.08443      .   S
    H63    C147      1.08443      .   S
    H61    C145      1.08442      .   S
    C146   N210      1.35470      .   S
    C144   N208      1.35470      .   S
    C147   N211      1.35463      .   S
    C145   N209      1.35465      .   S
    N224   C156      1.35411      .   S
    N224   C160      1.35420      .   S
    N226   C158      1.35415      .   S
    N226   C162      1.35409      .   S
    N225   C157      1.35405      .   S
    N225   C161      1.35406      .   S
    N227   C159      1.35405      .   S
    N227   C163      1.35406      .   S
    C156   N232      1.33518      .   S
    C158   N234      1.33518      .   S
    C157   N233      1.33523      .   S
    C159   N235      1.33524      .   S
    C140   N208      1.35918      .   S
    C140   H56       1.08554      .   S
    C142   N210      1.35916      .   S
    C142   H58       1.08556      .   S
    C141   N209      1.35914      .   S
    C141   H57       1.08552      .   S
    C143   N211      1.35914      .   S
    C143   H59       1.08553      .   S
    N208   Zn19      2.06052      .   S
    N210   Zn21      2.06054      .   S
    N211   Zn22      2.06012      .   S
    N209   Zn20      2.06010      .   S
    C162   H82       1.08413      .   S
    C162   N230      1.33528      .   S
    C160   H80       1.08411      .   S
    C160   N228      1.33519      .   S
    C163   H83       1.08413      .   S
    C163   N231      1.33530      .   S
    C161   H81       1.08415      .   S
    C161   N229      1.33530      .   S
    O96    C90       1.30361      .   S
    O96    Zn21      1.97089      .   S
    O244   C88       1.30361      .   S
    O244   Zn19      1.97091      .   S
    O97    C91       1.30355      .   S
    O97    Zn22      1.97100      .   S
    O95    C89       1.30353      .   S
    O95    Zn20      1.97100      .   S
    N234   Zn21      2.05270      .   S
    N234   N230      1.38103      .   S
    N232   Zn19      2.05271      .   S
    N232   N228      1.38105      .   S
    N235   Zn22      2.05213      .   S
    N235   N231      1.38100      .   S
    N233   Zn20      2.05214      .   S
    N233   N229      1.38100      .   S
    C91    O101      1.25834      .   S
    C89    O99       1.25748      .   S
    C90    O100      1.25833      .   S
    C88    O98       1.25830      .   S
