# CIF file generated by openbabel 2.4.90, see http://openbabel.sf.net
data_I
_chemical_name_common ''
_cell_length_a 19.673
_cell_length_b 24.252
_cell_length_c 15.389
_cell_angle_alpha 96.079
_cell_angle_beta 98.001
_cell_angle_gamma 113.54
_space_group_name_H-M_alt 'P 1'
_space_group_name_Hall 'P 1'
loop_
    _symmetry_equiv_pos_as_xyz
    x,y,z
loop_
    _atom_site_label
    _atom_site_type_symbol
    _atom_site_fract_x
    _atom_site_fract_y
    _atom_site_fract_z
    _atom_site_occupancy
    C0      C    0.49572   0.28795   0.29251   1.000
    C1      C    0.49606   0.78800   0.29252   1.000
    C2      C    0.99573   0.28795   0.29251   1.000
    C3      C    0.99606   0.78800   0.29252   1.000
    C4      C    0.44299   0.34186   0.66994   1.000
    C5      C    0.44323   0.84175   0.66992   1.000
    C6      C    0.94300   0.34186   0.66994   1.000
    C7      C    0.94324   0.84175   0.66992   1.000
    C8      C    0.22693   0.30838   0.06664   1.000
    C9      C    0.22722   0.80845   0.06669   1.000
    C10     C    0.72694   0.30838   0.06664   1.000
    C11     C    0.72723   0.80845   0.06669   1.000
    C12     C    0.00399   0.21198   0.70744   1.000
    C13     C    0.00433   0.71203   0.70740   1.000
    C14     C    0.50400   0.21198   0.70744   1.000
    C15     C    0.50433   0.71203   0.70745   1.000
    C16     C    0.05681   0.15823   0.33004   1.000
    C17     C    0.05705   0.65812   0.33001   1.000
    C18     C    0.55682   0.15823   0.33004   1.000
    C19     C    0.55706   0.65812   0.33001   1.000
    C20     C    0.27282   0.19153   0.93327   1.000
    C21     C    0.27311   0.69160   0.93332   1.000
    C22     C    0.77284   0.19153   0.93327   1.000
    C23     C    0.77312   0.69160   0.93332   1.000
    C24     C    0.24976   0.25022   0.49995   1.000
    C25     C    0.25030   0.74975   0.50001   1.000
    C26     C    0.74977   0.25021   0.49995   1.000
    C27     C    0.75031   0.74975   0.50001   1.000
    C28     C    0.14338   0.49706   0.81346   1.000
    C29     C    0.14344   0.99695   0.81340   1.000
    C30     C    0.64340   0.49706   0.81346   1.000
    C31     C    0.64346   0.99695   0.81340   1.000
    C32     C    0.36527   0.02671   0.94671   1.000
    C33     C    0.36516   0.52658   0.94659   1.000
    C34     C    0.86528   0.02671   0.94670   1.000
    C35     C    0.86517   0.52658   0.94658   1.000
    C36     C    0.33705   0.41758   0.89060   1.000
    C37     C    0.33739   0.91777   0.89072   1.000
    C38     C    0.83706   0.41758   0.89060   1.000
    C39     C    0.83740   0.91778   0.89072   1.000
    C40     C    0.21109   0.34927   0.79376   1.000
    C41     C    0.21151   0.84936   0.79377   1.000
    C42     C    0.71110   0.34927   0.79376   1.000
    C43     C    0.71152   0.84935   0.79377   1.000
    C44     C    0.41202   0.00357   0.66829   1.000
    C45     C    0.41191   0.50370   0.66840   1.000
    C46     C    0.91203   0.00357   0.66829   1.000
    C47     C    0.91192   0.50370   0.66840   1.000
    C48     C    0.23572   0.06242   0.59929   1.000
    C49     C    0.23581   0.56274   0.59917   1.000
    C50     C    0.73573   0.06242   0.59929   1.000
    C51     C    0.73582   0.56274   0.59917   1.000
    C52     C    0.13969   0.45456   0.56852   1.000
    C53     C    0.13973   0.95421   0.56846   1.000
    C54     C    0.63970   0.45456   0.56852   1.000
    C55     C    0.63974   0.95421   0.56846   1.000
    C56     C    0.18159   0.37041   0.57600   1.000
    C57     C    0.18180   0.87013   0.57578   1.000
    C58     C    0.68160   0.37042   0.57604   1.000
    C59     C    0.68181   0.87013   0.57578   1.000
    C60     C    0.09118   0.32499   0.14082   1.000
    C61     C    0.09151   0.82501   0.14092   1.000
    C62     C    0.59119   0.32499   0.14082   1.000
    C63     C    0.59152   0.82501   0.14092   1.000
    C64     C    0.18356   0.20167   0.20458   1.000
    C65     C    0.18384   0.70166   0.20465   1.000
    C66     C    0.68357   0.20167   0.20458   1.000
    C67     C    0.68385   0.70166   0.20465   1.000
    C68     C    0.03852   0.34135   0.51507   1.000
    C69     C    0.03899   0.84142   0.51511   1.000
    C70     C    0.53852   0.34135   0.51507   1.000
    C71     C    0.53899   0.84142   0.51511   1.000
    C72     C    0.33070   0.23137   0.34352   1.000
    C73     C    0.33127   0.73087   0.34373   1.000
    C74     C    0.83071   0.23137   0.34352   1.000
    C75     C    0.83128   0.73087   0.34370   1.000
    C76     C    0.37622   0.34766   0.22199   1.000
    C77     C    0.37655   0.84771   0.22208   1.000
    C78     C    0.87623   0.34767   0.22190   1.000
    C79     C    0.87657   0.84771   0.22208   1.000
    C80     C    0.39921   0.19504   0.09536   1.000
    C81     C    0.39946   0.69507   0.09538   1.000
    C82     C    0.89922   0.19504   0.09536   1.000
    C83     C    0.89947   0.69507   0.09538   1.000
    C84     C    0.35659   0.00303   0.18655   1.000
    C85     C    0.35665   0.50291   0.18649   1.000
    C86     C    0.85661   0.00303   0.18655   1.000
    C87     C    0.85667   0.50291   0.18649   1.000
    C88     C    0.13488   0.47341   0.05330   1.000
    C89     C    0.13477   0.97327   0.05324   1.000
    C90     C    0.63489   0.47341   0.05336   1.000
    C91     C    0.63479   0.97327   0.05323   1.000
    C92     C    0.16266   0.08221   0.10923   1.000
    C93     C    0.16300   0.58240   0.10935   1.000
    C94     C    0.66267   0.08221   0.10923   1.000
    C95     C    0.66301   0.58240   0.10935   1.000
    C96     C    0.28854   0.15063   0.20618   1.000
    C97     C    0.28896   0.65072   0.20619   1.000
    C98     C    0.78855   0.15063   0.20618   1.000
    C99     C    0.78897   0.65072   0.20619   1.000
    C100    C    0.08813   0.49628   0.33150   1.000
    C101    C    0.08802   0.99641   0.33166   1.000
    C102    C    0.58814   0.49628   0.33155   1.000
    C103    C    0.58803   0.99641   0.33166   1.000
    C104    C    0.26423   0.43724   0.40070   1.000
    C105    C    0.26432   0.93756   0.40060   1.000
    C106    C    0.76425   0.43724   0.40070   1.000
    C107    C    0.76434   0.93756   0.40067   1.000
    C108    C    0.36031   0.04577   0.43150   1.000
    C109    C    0.36036   0.54542   0.43144   1.000
    C110    C    0.86032   0.04578   0.43100   1.000
    C111    C    0.86037   0.54542   0.43143   1.000
    C112    C    0.31825   0.12985   0.42417   1.000
    C113    C    0.31845   0.62957   0.42390   1.000
    C114    C    0.81826   0.12985   0.42417   1.000
    C115    C    0.81846   0.62957   0.42390   1.000
    C116    C    0.40853   0.17497   0.85904   1.000
    C117    C    0.40886   0.67499   0.85914   1.000
    C118    C    0.90855   0.17497   0.85904   1.000
    C119    C    0.90888   0.67499   0.85914   1.000
    C120    C    0.31620   0.29832   0.79531   1.000
    C121    C    0.31648   0.79831   0.79538   1.000
    C122    C    0.81621   0.29832   0.79531   1.000
    C123    C    0.81649   0.79831   0.79538   1.000
    C124    C    0.46107   0.15856   0.48485   1.000
    C125    C    0.46154   0.65863   0.48489   1.000
    C126    C    0.96107   0.15856   0.48485   1.000
    C127    C    0.96154   0.65863   0.48489   1.000
    C128    C    0.16879   0.26909   0.65620   1.000
    C129    C    0.16936   0.76860   0.65640   1.000
    C130    C    0.66880   0.26909   0.65624   1.000
    C131    C    0.66937   0.76860   0.65644   1.000
    C132    C    0.12349   0.15227   0.77787   1.000
    C133    C    0.12382   0.65232   0.77797   1.000
    C134    C    0.62350   0.15227   0.77787   1.000
    C135    C    0.62384   0.65232   0.77797   1.000
    C136    C    0.10058   0.30491   0.90457   1.000
    C137    C    0.10084   0.80494   0.90460   1.000
    C138    C    0.60060   0.30491   0.90457   1.000
    C139    C    0.60085   0.80494   0.90460   1.000
    C140    C    0.16924   0.41857   0.79833   1.000
    C141    C    0.16950   0.91855   0.79830   1.000
    C142    C    0.66926   0.41857   0.79833   1.000
    C143    C    0.66952   0.91855   0.79831   1.000
    C144    C    0.18563   0.47960   0.83036   1.000
    C145    C    0.18576   0.97955   0.83034   1.000
    C146    C    0.68565   0.47960   0.83035   1.000
    C147    C    0.68577   0.97955   0.83034   1.000
    C148    C    0.25638   0.01842   0.88318   1.000
    C149    C    0.25631   0.51840   0.88315   1.000
    C150    C    0.75639   0.01842   0.88318   1.000
    C151    C    0.75632   0.51840   0.88314   1.000
    C152    C    0.31062   0.49572   0.90500   1.000
    C153    C    0.31077   0.99582   0.90517   1.000
    C154    C    0.81063   0.49572   0.90508   1.000
    C155    C    0.81078   0.99582   0.90517   1.000
    C156    C    0.29448   0.43488   0.87363   1.000
    C157    C    0.29476   0.93500   0.87372   1.000
    C158    C    0.79449   0.43488   0.87363   1.000
    C159    C    0.79477   0.93500   0.87372   1.000
    C160    C    0.22439   0.39668   0.82002   1.000
    C161    C    0.22472   0.89674   0.82005   1.000
    C162    C    0.72440   0.39667   0.82000   1.000
    C163    C    0.72474   0.89674   0.82005   1.000
    C164    C    0.09387   0.37691   0.74147   1.000
    C165    C    0.09418   0.87682   0.74141   1.000
    C166    C    0.59388   0.37691   0.74147   1.000
    C167    C    0.59419   0.87682   0.74142   1.000
    C168    C    0.27526   0.08430   0.91393   1.000
    C169    C    0.27530   0.58430   0.91390   1.000
    C170    C    0.77528   0.08430   0.91393   1.000
    C171    C    0.77532   0.58430   0.91390   1.000
    C172    C    0.29919   0.43161   0.62270   1.000
    C173    C    0.29936   0.93140   0.62258   1.000
    C174    C    0.79921   0.43161   0.62277   1.000
    C175    C    0.79937   0.93140   0.62259   1.000
    C176    C    0.35249   0.49291   0.64483   1.000
    C177    C    0.35259   0.99273   0.64473   1.000
    C178    C    0.85250   0.49291   0.64483   1.000
    C179    C    0.85260   0.99273   0.64473   1.000
    C180    C    0.32991   0.03983   0.63458   1.000
    C181    C    0.32991   0.54005   0.63457   1.000
    C182    C    0.82992   0.03983   0.63459   1.000
    C183    C    0.82993   0.54005   0.63458   1.000
    C184    C    0.25278   0.02542   0.60739   1.000
    C185    C    0.25280   0.52570   0.60736   1.000
    C186    C    0.75280   0.02542   0.60738   1.000
    C187    C    0.75282   0.52570   0.60730   1.000
    C188    C    0.19944   0.46508   0.58902   1.000
    C189    C    0.19950   0.96477   0.58895   1.000
    C190    C    0.69945   0.46508   0.58902   1.000
    C191    C    0.69951   0.96477   0.58895   1.000
    C192    C    0.22248   0.41793   0.59416   1.000
    C193    C    0.22263   0.91766   0.59397   1.000
    C194    C    0.72249   0.41793   0.59416   1.000
    C195    C    0.72264   0.91766   0.59397   1.000
    C196    C    0.32484   0.38192   0.63074   1.000
    C197    C    0.32511   0.88175   0.63050   1.000
    C198    C    0.82486   0.38192   0.63072   1.000
    C199    C    0.82513   0.88175   0.63048   1.000
    C200    C    0.38740   0.10499   0.64877   1.000
    C201    C    0.38752   0.60517   0.64871   1.000
    C202    C    0.88743   0.10499   0.64874   1.000
    C203    C    0.88754   0.60516   0.64870   1.000
    C204    C    0.10161   0.28953   0.16986   1.000
    C205    C    0.10193   0.78954   0.16996   1.000
    C206    C    0.60162   0.28953   0.16986   1.000
    C207    C    0.60195   0.78954   0.16996   1.000
    C208    C    0.14965   0.22763   0.20236   1.000
    C209    C    0.14994   0.72762   0.20242   1.000
    C210    C    0.64967   0.22763   0.20236   1.000
    C211    C    0.64996   0.72762   0.20243   1.000
    C212    C    0.47834   0.31596   0.48895   1.000
    C213    C    0.47882   0.81586   0.48903   1.000
    C214    C    0.97835   0.31596   0.48895   1.000
    C215    C    0.97883   0.81586   0.48903   1.000
    C216    C    0.37297   0.26047   0.40114   1.000
    C217    C    0.37350   0.76008   0.40131   1.000
    C218    C    0.87298   0.26047   0.40114   1.000
    C219    C    0.87351   0.76008   0.40131   1.000
    C220    C    0.36777   0.30740   0.17570   1.000
    C221    C    0.36809   0.80746   0.17583   1.000
    C222    C    0.86778   0.30740   0.17570   1.000
    C223    C    0.86810   0.80745   0.17583   1.000
    C224    C    0.38050   0.23061   0.11161   1.000
    C225    C    0.38078   0.73065   0.11165   1.000
    C226    C    0.88052   0.23061   0.11161   1.000
    C227    C    0.88079   0.73065   0.11165   1.000
    C228    C    0.33054   0.08143   0.20164   1.000
    C229    C    0.33080   0.58141   0.20160   1.000
    C230    C    0.83055   0.08143   0.20163   1.000
    C231    C    0.83081   0.58141   0.20162   1.000
    C232    C    0.31428   0.02043   0.16961   1.000
    C233    C    0.31441   0.52038   0.16959   1.000
    C234    C    0.81429   0.02043   0.16961   1.000
    C235    C    0.81442   0.52038   0.16959   1.000
    C236    C    0.24373   0.48158   0.11680   1.000
    C237    C    0.24366   0.98157   0.11677   1.000
    C238    C    0.74374   0.48158   0.11680   1.000
    C239    C    0.74367   0.98156   0.11677   1.000
    C240    C    0.18927   0.00416   0.09478   1.000
    C241    C    0.18942   0.50426   0.09480   1.000
    C242    C    0.68929   0.00416   0.09478   1.000
    C243    C    0.68944   0.50426   0.09480   1.000
    C244    C    0.20529   0.06498   0.12620   1.000
    C245    C    0.20557   0.56510   0.12632   1.000
    C246    C    0.70530   0.06498   0.12623   1.000
    C247    C    0.70558   0.56510   0.12632   1.000
    C248    C    0.27532   0.10324   0.17990   1.000
    C249    C    0.27565   0.60330   0.17993   1.000
    C250    C    0.77533   0.10324   0.17990   1.000
    C251    C    0.77567   0.60330   0.17993   1.000
    C252    C    0.40586   0.12316   0.25854   1.000
    C253    C    0.40618   0.62306   0.25840   1.000
    C254    C    0.90587   0.12316   0.25854   1.000
    C255    C    0.90619   0.62306   0.25848   1.000
    C256    C    0.22473   0.41568   0.08605   1.000
    C257    C    0.22477   0.91568   0.08600   1.000
    C258    C    0.72474   0.41568   0.08605   1.000
    C259    C    0.72479   0.91568   0.08600   1.000
    C260    C    0.20068   0.06858   0.37737   1.000
    C261    C    0.20085   0.56837   0.37719   1.000
    C262    C    0.70069   0.06858   0.37736   1.000
    C263    C    0.70086   0.56837   0.37710   1.000
    C264    C    0.14746   0.00725   0.35520   1.000
    C265    C    0.14755   0.50707   0.35511   1.000
    C266    C    0.64747   0.00725   0.35522   1.000
    C267    C    0.64756   0.50707   0.35512   1.000
    C268    C    0.17013   0.45993   0.36530   1.000
    C269    C    0.17013   0.96015   0.36530   1.000
    C270    C    0.67014   0.45993   0.36537   1.000
    C271    C    0.67014   0.96015   0.36537   1.000
    C272    C    0.24724   0.47428   0.39200   1.000
    C273    C    0.24726   0.97457   0.39257   1.000
    C274    C    0.74725   0.47428   0.39260   1.000
    C275    C    0.74727   0.97457   0.39257   1.000
    C276    C    0.30054   0.03521   0.41100   1.000
    C277    C    0.30060   0.53490   0.41093   1.000
    C278    C    0.80056   0.03521   0.41100   1.000
    C279    C    0.80061   0.53490   0.41093   1.000
    C280    C    0.27741   0.08232   0.40597   1.000
    C281    C    0.27756   0.58205   0.40578   1.000
    C282    C    0.77743   0.08232   0.40590   1.000
    C283    C    0.77757   0.58205   0.40579   1.000
    C284    C    0.17494   0.11823   0.36945   1.000
    C285    C    0.17520   0.61806   0.36919   1.000
    C286    C    0.67495   0.11823   0.36945   1.000
    C287    C    0.67520   0.61806   0.36922   1.000
    C288    C    0.11253   0.39481   0.35123   1.000
    C289    C    0.11264   0.89499   0.35119   1.000
    C290    C    0.61253   0.39482   0.35126   1.000
    C291    C    0.61265   0.89499   0.35120   1.000
    C292    C    0.39811   0.21044   0.83000   1.000
    C293    C    0.39843   0.71045   0.83010   1.000
    C294    C    0.89812   0.21044   0.83000   1.000
    C295    C    0.89844   0.71045   0.83010   1.000
    C296    C    0.35010   0.27236   0.79753   1.000
    C297    C    0.35039   0.77235   0.79760   1.000
    C298    C    0.85011   0.27236   0.79753   1.000
    C299    C    0.85040   0.77235   0.79760   1.000
    C300    C    0.02123   0.18411   0.51093   1.000
    C301    C    0.02171   0.68401   0.51101   1.000
    C302    C    0.52124   0.18411   0.51093   1.000
    C303    C    0.52172   0.68401   0.51101   1.000
    C304    C    0.12655   0.23989   0.59865   1.000
    C305    C    0.12708   0.73950   0.59882   1.000
    C306    C    0.62656   0.23989   0.59865   1.000
    C307    C    0.62709   0.73950   0.59882   1.000
    C308    C    0.13196   0.19253   0.82413   1.000
    C309    C    0.13227   0.69258   0.82420   1.000
    C310    C    0.63197   0.19253   0.82413   1.000
    C311    C    0.63228   0.69258   0.82420   1.000
    C312    C    0.11926   0.26933   0.88831   1.000
    C313    C    0.11954   0.76938   0.88834   1.000
    C314    C    0.61927   0.26934   0.88830   1.000
    C315    C    0.61955   0.76938   0.88834   1.000
    C316    C    0.09653   0.22056   0.25101   1.000
    C317    C    0.09681   0.72055   0.25108   1.000
    C318    C    0.59654   0.22056   0.25101   1.000
    C319    C    0.59682   0.72055   0.25108   1.000
    C320    C    0.06548   0.26037   0.22962   1.000
    C321    C    0.06580   0.76038   0.22970   1.000
    C322    C    0.56549   0.26037   0.22962   1.000
    C323    C    0.56581   0.76038   0.22970   1.000
    C324    C    0.15484   0.27038   0.15051   1.000
    C325    C    0.15516   0.77038   0.15059   1.000
    C326    C    0.65485   0.27038   0.15051   1.000
    C327    C    0.65517   0.77038   0.15059   1.000
    C328    C    0.42502   0.30908   0.53720   1.000
    C329    C    0.42550   0.80882   0.53732   1.000
    C330    C    0.92504   0.30908   0.53720   1.000
    C331    C    0.92551   0.80882   0.53732   1.000
    C332    C    0.35659   0.27335   0.48009   1.000
    C333    C    0.35711   0.77290   0.48028   1.000
    C334    C    0.85660   0.27335   0.48009   1.000
    C335    C    0.85712   0.77290   0.48020   1.000
    C336    C    0.44812   0.28654   0.40355   1.000
    C337    C    0.44864   0.78636   0.40367   1.000
    C338    C    0.94813   0.28654   0.40355   1.000
    C339    C    0.94865   0.78636   0.40367   1.000
    C340    C    0.40961   0.27483   0.18525   1.000
    C341    C    0.40989   0.77485   0.18531   1.000
    C342    C    0.90962   0.27483   0.18525   1.000
    C343    C    0.90990   0.77485   0.18531   1.000
    C344    C    0.32339   0.23510   0.05950   1.000
    C345    C    0.32370   0.73518   0.05950   1.000
    C346    C    0.82340   0.23510   0.05950   1.000
    C347    C    0.82371   0.73518   0.05953   1.000
    C348    C    0.31484   0.28459   0.10109   1.000
    C349    C    0.31517   0.78468   0.10110   1.000
    C350    C    0.81485   0.28459   0.10109   1.000
    C351    C    0.81518   0.78468   0.10114   1.000
    C352    C    0.40323   0.27943   0.74888   1.000
    C353    C    0.40352   0.77942   0.74895   1.000
    C354    C    0.90324   0.27943   0.74888   1.000
    C355    C    0.90353   0.77942   0.74895   1.000
    C356    C    0.43424   0.23960   0.77025   1.000
    C357    C    0.43456   0.73961   0.77034   1.000
    C358    C    0.93425   0.23960   0.77025   1.000
    C359    C    0.93457   0.73961   0.77034   1.000
    C360    C    0.34489   0.22960   0.84937   1.000
    C361    C    0.34520   0.72960   0.84945   1.000
    C362    C    0.84490   0.22960   0.84937   1.000
    C363    C    0.84521   0.72960   0.84945   1.000
    C364    C    0.07455   0.19115   0.46264   1.000
    C365    C    0.07503   0.69089   0.46276   1.000
    C366    C    0.57456   0.19115   0.46264   1.000
    C367    C    0.57504   0.69089   0.46270   1.000
    C368    C    0.14295   0.22707   0.51969   1.000
    C369    C    0.14346   0.72662   0.51987   1.000
    C370    C    0.64296   0.22706   0.51969   1.000
    C371    C    0.64347   0.72662   0.51987   1.000
    C372    C    0.05141   0.21362   0.59629   1.000
    C373    C    0.05193   0.71344   0.59641   1.000
    C374    C    0.55142   0.21361   0.59629   1.000
    C375    C    0.55194   0.71344   0.59641   1.000
    C376    C    0.09015   0.22513   0.81464   1.000
    C377    C    0.09043   0.72515   0.81471   1.000
    C378    C    0.59016   0.22513   0.81464   1.000
    C379    C    0.59044   0.72515   0.81471   1.000
    C380    C    0.17634   0.26481   0.94042   1.000
    C381    C    0.17665   0.76489   0.94046   1.000
    C382    C    0.67636   0.26481   0.94042   1.000
    C383    C    0.67666   0.76489   0.94046   1.000
    C384    C    0.18487   0.21530   0.89881   1.000
    C385    C    0.18520   0.71539   0.89887   1.000
    C386    C    0.68488   0.21531   0.89881   1.000
    C387    C    0.68521   0.71539   0.89887   1.000
    C388    C    0.07910   0.32166   0.71460   1.000
    C389    C    0.07955   0.82159   0.71459   1.000
    C390    C    0.57911   0.32166   0.71461   1.000
    C391    C    0.57956   0.82159   0.71459   1.000
    C392    C    0.04669   0.40096   0.72266   1.000
    C393    C    0.04694   0.90080   0.72250   1.000
    C394    C    0.54670   0.40096   0.72266   1.000
    C395    C    0.54695   0.90080   0.72255   1.000
    C396    C    0.22192   0.10230   0.89268   1.000
    C397    C    0.22203   0.60238   0.89270   1.000
    C398    C    0.72194   0.10230   0.89268   1.000
    C399    C    0.72204   0.60237   0.89270   1.000
    C400    C    0.34029   0.12066   0.95623   1.000
    C401    C    0.34036   0.62062   0.95600   1.000
    C402    C    0.84030   0.12066   0.95623   1.000
    C403    C    0.84037   0.62062   0.95619   1.000
    C404    C    0.27909   0.32637   0.59642   1.000
    C405    C    0.27945   0.82619   0.59608   1.000
    C406    C    0.77909   0.32637   0.59643   1.000
    C407    C    0.77946   0.82619   0.59609   1.000
    C408    C    0.39187   0.39756   0.67400   1.000
    C409    C    0.39211   0.89743   0.67387   1.000
    C410    C    0.89187   0.39756   0.67401   1.000
    C411    C    0.89212   0.89743   0.67388   1.000
    C412    C    0.45053   0.11971   0.70396   1.000
    C413    C    0.45061   0.61979   0.70393   1.000
    C414    C    0.95054   0.11971   0.70397   1.000
    C415    C    0.95062   0.61979   0.70394   1.000
    C416    C    0.37361   0.14275   0.60745   1.000
    C417    C    0.37388   0.64297   0.60735   1.000
    C418    C    0.87361   0.14275   0.60746   1.000
    C419    C    0.87389   0.64297   0.60736   1.000
    C420    C    0.42050   0.17839   0.28537   1.000
    C421    C    0.42095   0.67832   0.28534   1.000
    C422    C    0.92052   0.17839   0.28537   1.000
    C423    C    0.92096   0.67832   0.28535   1.000
    C424    C    0.45310   0.09918   0.27739   1.000
    C425    C    0.45336   0.59902   0.27728   1.000
    C426    C    0.95311   0.09918   0.27739   1.000
    C427    C    0.95337   0.59902   0.27720   1.000
    C428    C    0.27801   0.39760   0.10725   1.000
    C429    C    0.27811   0.89768   0.10727   1.000
    C430    C    0.77802   0.39760   0.10726   1.000
    C431    C    0.77813   0.89768   0.10727   1.000
    C432    C    0.15968   0.37936   0.04370   1.000
    C433    C    0.15975   0.87932   0.04372   1.000
    C434    C    0.65969   0.37936   0.04376   1.000
    C435    C    0.65976   0.87932   0.04372   1.000
    C436    C    0.22060   0.17379   0.40386   1.000
    C437    C    0.22096   0.67361   0.40352   1.000
    C438    C    0.72061   0.17379   0.40386   1.000
    C439    C    0.72097   0.67361   0.40351   1.000
    C440    C    0.10793   0.10255   0.32608   1.000
    C441    C    0.10817   0.60242   0.32595   1.000
    C442    C    0.60794   0.10255   0.32600   1.000
    C443    C    0.60819   0.60242   0.32594   1.000
    C444    C    0.04943   0.38019   0.29603   1.000
    C445    C    0.04951   0.88027   0.29600   1.000
    C446    C    0.54945   0.38018   0.29602   1.000
    C447    C    0.54953   0.88026   0.29600   1.000
    C448    C    0.12617   0.35702   0.39262   1.000
    C449    C    0.12644   0.85723   0.39250   1.000
    C450    C    0.62619   0.35701   0.39260   1.000
    C451    C    0.62646   0.85723   0.39250   1.000
    O452    O    0.19220   0.39752   0.06488   1.000
    O453    O    0.69228   0.89750   0.06486   1.000
    O454    O    0.19226   0.89750   0.06486   1.000
    O455    O    0.69222   0.39752   0.06491   1.000
    O456    O    0.66204   0.98872   0.07401   1.000
    O457    O    0.16202   0.98872   0.07401   1.000
    O458    O    0.16215   0.48883   0.07405   1.000
    O459    O    0.66216   0.48883   0.07408   1.000
    O460    O    0.31911   0.25984   0.08030   1.000
    O461    O    0.35195   0.23285   0.08556   1.000
    O462    O    0.29811   0.21331   0.99639   1.000
    O463    O    0.31943   0.75993   0.08030   1.000
    O464    O    0.35224   0.73291   0.08558   1.000
    O465    O    0.29840   0.71339   0.99641   1.000
    O466    O    0.81913   0.25984   0.08030   1.000
    O467    O    0.85196   0.23285   0.08556   1.000
    O468    O    0.79812   0.21331   0.99639   1.000
    O469    O    0.81945   0.75993   0.08034   1.000
    O470    O    0.85225   0.73291   0.08559   1.000
    O471    O    0.79841   0.71339   0.99643   1.000
    O472    O    0.77090   0.29648   0.08387   1.000
    O473    O    0.75248   0.35299   0.08695   1.000
    O474    O    0.69090   0.28938   0.10858   1.000
    O475    O    0.70165   0.28659   0.00353   1.000
    O476    O    0.27088   0.29648   0.08387   1.000
    O477    O    0.25247   0.35299   0.08695   1.000
    O478    O    0.19089   0.28938   0.10858   1.000
    O479    O    0.20164   0.28659   0.00353   1.000
    O480    O    0.77121   0.79656   0.08392   1.000
    O481    O    0.75268   0.85306   0.08698   1.000
    O482    O    0.69120   0.78941   0.10864   1.000
    O483    O    0.70195   0.78667   0.00358   1.000
    O484    O    0.27120   0.79656   0.08390   1.000
    O485    O    0.25266   0.85306   0.08698   1.000
    O486    O    0.19119   0.78941   0.10864   1.000
    O487    O    0.20193   0.78667   0.00358   1.000
    O488    O    0.25144   0.90668   0.09664   1.000
    O489    O    0.23422   0.94862   0.10139   1.000
    O490    O    0.75146   0.90668   0.09664   1.000
    O491    O    0.73423   0.94862   0.10139   1.000
    O492    O    0.25137   0.40664   0.09665   1.000
    O493    O    0.23423   0.44863   0.10143   1.000
    O494    O    0.75138   0.40664   0.09666   1.000
    O495    O    0.73424   0.44863   0.10143   1.000
    O496    O    0.71648   0.99286   0.10578   1.000
    O497    O    0.69729   0.03457   0.11051   1.000
    O498    O    0.21647   0.99286   0.10578   1.000
    O499    O    0.19728   0.03457   0.11049   1.000
    O500    O    0.71659   0.49292   0.10580   1.000
    O501    O    0.69751   0.53468   0.11056   1.000
    O502    O    0.21658   0.49292   0.10580   1.000
    O503    O    0.19750   0.53468   0.11056   1.000
    O504    O    0.88987   0.21282   0.10349   1.000
    O505    O    0.38985   0.21282   0.10349   1.000
    O506    O    0.39012   0.71286   0.10352   1.000
    O507    O    0.89013   0.71286   0.10352   1.000
    O508    O    0.34130   0.29600   0.13840   1.000
    O509    O    0.84132   0.29600   0.13840   1.000
    O510    O    0.34163   0.79607   0.13847   1.000
    O511    O    0.84164   0.79607   0.13849   1.000
    O512    O    0.68398   0.07360   0.11773   1.000
    O513    O    0.18397   0.07360   0.11772   1.000
    O514    O    0.68429   0.57375   0.11784   1.000
    O515    O    0.18428   0.57375   0.11784   1.000
    O516    O    0.39506   0.25272   0.14843   1.000
    O517    O    0.89507   0.25272   0.14843   1.000
    O518    O    0.89535   0.75275   0.14848   1.000
    O519    O    0.39534   0.75275   0.14848   1.000
    O520    O    0.27897   0.00100   0.14319   1.000
    O521    O    0.77898   0.00100   0.14319   1.000
    O522    O    0.77908   0.50098   0.14320   1.000
    O523    O    0.27907   0.50098   0.14320   1.000
    O524    O    0.24030   0.08411   0.15305   1.000
    O525    O    0.74032   0.08411   0.15307   1.000
    O526    O    0.74062   0.58420   0.15313   1.000
    O527    O    0.24061   0.58420   0.15313   1.000
    O528    O    0.09639   0.30726   0.15534   1.000
    O529    O    0.59640   0.30726   0.15534   1.000
    O530    O    0.09672   0.80728   0.15544   1.000
    O531    O    0.59673   0.80728   0.15544   1.000
    O532    O    0.12823   0.27995   0.16019   1.000
    O533    O    0.15225   0.24900   0.17644   1.000
    O534    O    0.62824   0.27995   0.16019   1.000
    O535    O    0.65226   0.24900   0.17644   1.000
    O536    O    0.12854   0.77996   0.16028   1.000
    O537    O    0.15255   0.74900   0.17651   1.000
    O538    O    0.62856   0.77996   0.16028   1.000
    O539    O    0.65256   0.74900   0.17651   1.000
    O540    O    0.83554   0.51165   0.17804   1.000
    O541    O    0.82262   0.55090   0.18561   1.000
    O542    O    0.33553   0.51165   0.17804   1.000
    O543    O    0.32260   0.55090   0.18560   1.000
    O544    O    0.83545   0.01173   0.17808   1.000
    O545    O    0.82242   0.05093   0.18562   1.000
    O546    O    0.33544   0.01173   0.17808   1.000
    O547    O    0.32241   0.05093   0.18563   1.000
    O548    O    0.58356   0.27495   0.19974   1.000
    O549    O    0.08355   0.27495   0.19974   1.000
    O550    O    0.08387   0.77496   0.19983   1.000
    O551    O    0.58388   0.77496   0.19983   1.000
    O552    O    0.88870   0.29112   0.18048   1.000
    O553    O    0.87200   0.32753   0.19880   1.000
    O554    O    0.38869   0.29112   0.18048   1.000
    O555    O    0.37199   0.32753   0.19885   1.000
    O556    O    0.88900   0.79115   0.18057   1.000
    O557    O    0.87233   0.82758   0.19896   1.000
    O558    O    0.38899   0.79115   0.18057   1.000
    O559    O    0.37232   0.82758   0.19896   1.000
    O560    O    0.30293   0.09233   0.19077   1.000
    O561    O    0.28193   0.12693   0.19304   1.000
    O562    O    0.80294   0.09233   0.19077   1.000
    O563    O    0.78194   0.12693   0.19304   1.000
    O564    O    0.30323   0.59236   0.19077   1.000
    O565    O    0.28231   0.62701   0.19306   1.000
    O566    O    0.80324   0.59236   0.19078   1.000
    O567    O    0.78232   0.62701   0.19306   1.000
    O568    O    0.45267   0.28139   0.23888   1.000
    O569    O    0.95268   0.28139   0.23888   1.000
    O570    O    0.95298   0.78142   0.23892   1.000
    O571    O    0.45297   0.78143   0.23892   1.000
    O572    O    0.36849   0.60224   0.23000   1.000
    O573    O    0.86850   0.60223   0.23005   1.000
    O574    O    0.86821   0.10229   0.23009   1.000
    O575    O    0.36820   0.10229   0.23009   1.000
    O576    O    0.66662   0.21465   0.20347   1.000
    O577    O    0.62310   0.22409   0.22669   1.000
    O578    O    0.16661   0.21465   0.20347   1.000
    O579    O    0.12309   0.22409   0.22669   1.000
    O580    O    0.16689   0.71464   0.20354   1.000
    O581    O    0.12338   0.72408   0.22675   1.000
    O582    O    0.66690   0.71464   0.20354   1.000
    O583    O    0.62339   0.72408   0.22676   1.000
    O584    O    0.08101   0.24046   0.24032   1.000
    O585    O    0.03061   0.27416   0.26107   1.000
    O586    O    0.58102   0.24046   0.24032   1.000
    O587    O    0.53061   0.27416   0.26107   1.000
    O588    O    0.08131   0.74046   0.24039   1.000
    O589    O    0.03093   0.77419   0.26111   1.000
    O590    O    0.58132   0.74046   0.24039   1.000
    O591    O    0.53093   0.77419   0.26111   1.000
    O592    O    0.57668   0.18939   0.29053   1.000
    O593    O    0.07667   0.18939   0.29053   1.000
    O594    O    0.57694   0.68933   0.29055   1.000
    O595    O    0.07693   0.68933   0.29055   1.000
    O596    O    0.42977   0.61104   0.26784   1.000
    O597    O    0.41356   0.65069   0.27187   1.000
    O598    O    0.92978   0.61104   0.26784   1.000
    O599    O    0.91357   0.65069   0.27192   1.000
    O600    O    0.42948   0.11117   0.26797   1.000
    O601    O    0.41318   0.15078   0.27196   1.000
    O602    O    0.92949   0.11117   0.26797   1.000
    O603    O    0.91319   0.15077   0.27196   1.000
    O604    O    0.00521   0.62857   0.30361   1.000
    O605    O    0.50521   0.62857   0.30365   1.000
    O606    O    0.00496   0.12870   0.30372   1.000
    O607    O    0.50496   0.12870   0.30372   1.000
    O608    O    0.02258   0.33407   0.29427   1.000
    O609    O    0.97193   0.28724   0.34803   1.000
    O610    O    0.52259   0.33407   0.29427   1.000
    O611    O    0.47192   0.28724   0.34803   1.000
    O612    O    0.52279   0.83413   0.29426   1.000
    O613    O    0.47235   0.78718   0.34810   1.000
    O614    O    0.02279   0.83413   0.29426   1.000
    O615    O    0.97236   0.78718   0.34810   1.000
    O616    O    0.58109   0.88763   0.32360   1.000
    O617    O    0.08107   0.88763   0.32360   1.000
    O618    O    0.58099   0.38750   0.32364   1.000
    O619    O    0.08098   0.38750   0.32363   1.000
    O620    O    0.58262   0.63027   0.32798   1.000
    O621    O    0.64169   0.61024   0.34758   1.000
    O622    O    0.08261   0.63027   0.32798   1.000
    O623    O    0.14169   0.61024   0.34757   1.000
    O624    O    0.58238   0.13039   0.32802   1.000
    O625    O    0.64145   0.11039   0.34773   1.000
    O626    O    0.08237   0.13039   0.32806   1.000
    O627    O    0.14143   0.11039   0.34777   1.000
    O628    O    0.06604   0.67450   0.39639   1.000
    O629    O    0.56605   0.67450   0.39636   1.000
    O630    O    0.06568   0.17469   0.39634   1.000
    O631    O    0.56569   0.17469   0.39634   1.000
    O632    O    0.11784   0.50167   0.34331   1.000
    O633    O    0.61785   0.50167   0.34334   1.000
    O634    O    0.61775   0.00183   0.34344   1.000
    O635    O    0.11774   0.00183   0.34343   1.000
    O636    O    0.85185   0.24592   0.37233   1.000
    O637    O    0.35183   0.24592   0.37233   1.000
    O638    O    0.85239   0.74548   0.37251   1.000
    O639    O    0.35239   0.74548   0.37252   1.000
    O640    O    0.14138   0.92757   0.35825   1.000
    O641    O    0.11954   0.87611   0.37185   1.000
    O642    O    0.64140   0.92757   0.35829   1.000
    O643    O    0.61955   0.87611   0.37185   1.000
    O644    O    0.14133   0.42737   0.35827   1.000
    O645    O    0.11935   0.37591   0.37193   1.000
    O646    O    0.64133   0.42737   0.35832   1.000
    O647    O    0.61936   0.37592   0.37193   1.000
    O648    O    0.15884   0.48350   0.36021   1.000
    O649    O    0.17420   0.53772   0.36615   1.000
    O650    O    0.65885   0.48350   0.36025   1.000
    O651    O    0.67421   0.53772   0.36611   1.000
    O652    O    0.15879   0.98370   0.36025   1.000
    O653    O    0.17407   0.03791   0.36629   1.000
    O654    O    0.65881   0.98370   0.36030   1.000
    O655    O    0.67408   0.03791   0.36629   1.000
    O656    O    0.20868   0.46711   0.37865   1.000
    O657    O    0.20869   0.96736   0.37894   1.000
    O658    O    0.70870   0.46710   0.37899   1.000
    O659    O    0.70871   0.96736   0.37897   1.000
    O660    O    0.18802   0.59321   0.37319   1.000
    O661    O    0.19808   0.64584   0.38636   1.000
    O662    O    0.68803   0.59321   0.37316   1.000
    O663    O    0.69809   0.64584   0.38637   1.000
    O664    O    0.18781   0.09340   0.37341   1.000
    O665    O    0.19777   0.14601   0.38666   1.000
    O666    O    0.68782   0.09340   0.37341   1.000
    O667    O    0.69778   0.14601   0.38666   1.000
    O668    O    0.73922   0.57521   0.39145   1.000
    O669    O    0.23920   0.57521   0.39149   1.000
    O670    O    0.73906   0.07545   0.39163   1.000
    O671    O    0.23905   0.07545   0.39167   1.000
    O672    O    0.25573   0.45576   0.39635   1.000
    O673    O    0.27392   0.50459   0.40147   1.000
    O674    O    0.75581   0.95606   0.39662   1.000
    O675    O    0.77391   0.00489   0.40179   1.000
    O676    O    0.25579   0.95606   0.39659   1.000
    O677    O    0.27390   0.00489   0.40179   1.000
    O678    O    0.75575   0.45576   0.39665   1.000
    O679    O    0.77393   0.50459   0.40177   1.000
    O680    O    0.91056   0.27350   0.40235   1.000
    O681    O    0.86479   0.26691   0.44062   1.000
    O682    O    0.41055   0.27350   0.40235   1.000
    O683    O    0.36478   0.26691   0.44062   1.000
    O684    O    0.91108   0.77322   0.40249   1.000
    O685    O    0.86531   0.76649   0.44076   1.000
    O686    O    0.41107   0.77322   0.40249   1.000
    O687    O    0.36531   0.76649   0.44080   1.000
    O688    O    0.73564   0.71168   0.45176   1.000
    O689    O    0.23563   0.71168   0.45177   1.000
    O690    O    0.46323   0.30125   0.44625   1.000
    O691    O    0.96324   0.30125   0.44625   1.000
    O692    O    0.46373   0.80111   0.44635   1.000
    O693    O    0.96374   0.80111   0.44635   1.000
    O694    O    0.73519   0.21200   0.45191   1.000
    O695    O    0.23518   0.21200   0.45191   1.000
    O696    O    0.28908   0.55848   0.40836   1.000
    O697    O    0.29801   0.60581   0.41484   1.000
    O698    O    0.78909   0.55848   0.40836   1.000
    O699    O    0.79802   0.60581   0.41485   1.000
    O700    O    0.78899   0.05876   0.40845   1.000
    O701    O    0.79784   0.10608   0.41504   1.000
    O702    O    0.28898   0.05876   0.40849   1.000
    O703    O    0.29783   0.10608   0.41507   1.000
    O704    O    0.33048   0.54016   0.42119   1.000
    O705    O    0.83049   0.54016   0.42118   1.000
    O706    O    0.83044   0.04049   0.42100   1.000
    O707    O    0.33043   0.04049   0.42125   1.000
    O708    O    0.04789   0.18763   0.48679   1.000
    O709    O    0.10875   0.20911   0.49117   1.000
    O710    O    0.54790   0.18763   0.48679   1.000
    O711    O    0.60876   0.20911   0.49117   1.000
    O712    O    0.54838   0.68745   0.48686   1.000
    O713    O    0.60925   0.70875   0.49129   1.000
    O714    O    0.04837   0.68745   0.48689   1.000
    O715    O    0.10925   0.70875   0.49132   1.000
    O716    O    0.80319   0.26178   0.49002   1.000
    O717    O    0.89082   0.29122   0.50865   1.000
    O718    O    0.30317   0.26178   0.49002   1.000
    O719    O    0.39081   0.29122   0.50865   1.000
    O720    O    0.80371   0.76133   0.49011   1.000
    O721    O    0.89131   0.79086   0.50876   1.000
    O722    O    0.30370   0.76133   0.49015   1.000
    O723    O    0.39130   0.79086   0.50880   1.000
    O724    O    0.49116   0.17133   0.49789   1.000
    O725    O    0.99115   0.17133   0.49789   1.000
    O726    O    0.99163   0.67132   0.49795   1.000
    O727    O    0.49163   0.67132   0.49795   1.000
    O728    O    0.00844   0.32866   0.50201   1.000
    O729    O    0.95169   0.31252   0.51308   1.000
    O730    O    0.50843   0.32866   0.50201   1.000
    O731    O    0.45168   0.31252   0.51308   1.000
    O732    O    0.50891   0.82864   0.50207   1.000
    O733    O    0.45216   0.81234   0.51318   1.000
    O734    O    0.00891   0.82864   0.50207   1.000
    O735    O    0.95217   0.81234   0.51318   1.000
    O736    O    0.69636   0.23864   0.50982   1.000
    O737    O    0.76443   0.28829   0.54819   1.000
    O738    O    0.19635   0.23864   0.50982   1.000
    O739    O    0.26442   0.28829   0.54819   1.000
    O740    O    0.69689   0.73818   0.50994   1.000
    O741    O    0.76488   0.78797   0.54805   1.000
    O742    O    0.19688   0.73818   0.50994   1.000
    O743    O    0.26487   0.78797   0.54805   1.000
    O744    O    0.03632   0.19886   0.55361   1.000
    O745    O    0.53633   0.19886   0.55361   1.000
    O746    O    0.03682   0.69873   0.55371   1.000
    O747    O    0.53683   0.69873   0.55371   1.000
    O748    O    0.13475   0.23348   0.55917   1.000
    O749    O    0.63476   0.23348   0.55917   1.000
    O750    O    0.13527   0.73306   0.55935   1.000
    O751    O    0.63528   0.73306   0.55935   1.000
    O752    O    0.93402   0.32547   0.60357   1.000
    O753    O    0.43401   0.32547   0.60357   1.000
    O754    O    0.93437   0.82528   0.60362   1.000
    O755    O    0.43437   0.82528   0.60362   1.000
    O756    O    0.16962   0.95949   0.57871   1.000
    O757    O    0.66963   0.95949   0.57871   1.000
    O758    O    0.16956   0.45982   0.57877   1.000
    O759    O    0.66958   0.45982   0.57877   1.000
    O760    O    0.70223   0.89390   0.58488   1.000
    O761    O    0.20221   0.89390   0.58488   1.000
    O762    O    0.20204   0.39417   0.58508   1.000
    O763    O    0.70205   0.39417   0.58510   1.000
    O764    O    0.71108   0.94122   0.59146   1.000
    O765    O    0.72615   0.99509   0.59817   1.000
    O766    O    0.21106   0.94122   0.59146   1.000
    O767    O    0.22614   0.99509   0.59817   1.000
    O768    O    0.21096   0.44151   0.59159   1.000
    O769    O    0.22612   0.49539   0.59819   1.000
    O770    O    0.71097   0.44151   0.59159   1.000
    O771    O    0.72614   0.49539   0.59816   1.000
    O772    O    0.76101   0.92453   0.60828   1.000
    O773    O    0.26100   0.92453   0.60828   1.000
    O774    O    0.76085   0.42477   0.60847   1.000
    O775    O    0.26084   0.42477   0.60843   1.000
    O776    O    0.30228   0.85397   0.61329   1.000
    O777    O    0.80229   0.85397   0.61329   1.000
    O778    O    0.08898   0.22675   0.59747   1.000
    O779    O    0.02770   0.21280   0.65187   1.000
    O780    O    0.58899   0.22675   0.59747   1.000
    O781    O    0.52771   0.21280   0.65187   1.000
    O782    O    0.58952   0.72647   0.59762   1.000
    O783    O    0.52814   0.71273   0.65193   1.000
    O784    O    0.08951   0.72647   0.59762   1.000
    O785    O    0.02813   0.71273   0.65191   1.000
    O786    O    0.30196   0.35415   0.61358   1.000
    O787    O    0.80198   0.35414   0.61358   1.000
    O788    O    0.64768   0.25449   0.62745   1.000
    O789    O    0.14767   0.25449   0.62743   1.000
    O790    O    0.64823   0.75405   0.62763   1.000
    O791    O    0.14822   0.75405   0.62761   1.000
    O792    O    0.24431   0.54422   0.60327   1.000
    O793    O    0.74432   0.54422   0.60324   1.000
    O794    O    0.74426   0.04392   0.60334   1.000
    O795    O    0.24425   0.04392   0.60334   1.000
    O796    O    0.79137   0.53288   0.62094   1.000
    O797    O    0.38070   0.62407   0.62803   1.000
    O798    O    0.29136   0.53288   0.62097   1.000
    O799    O    0.88072   0.62407   0.62803   1.000
    O800    O    0.79136   0.03262   0.62099   1.000
    O801    O    0.29135   0.03262   0.62099   1.000
    O802    O    0.38051   0.12387   0.62811   1.000
    O803    O    0.88052   0.12387   0.62810   1.000
    O804    O    0.31224   0.90657   0.62654   1.000
    O805    O    0.32598   0.96207   0.63366   1.000
    O806    O    0.81225   0.90658   0.62654   1.000
    O807    O    0.82599   0.96207   0.63366   1.000
    O808    O    0.31202   0.40677   0.62672   1.000
    O809    O    0.32584   0.46226   0.63377   1.000
    O810    O    0.81203   0.40677   0.62675   1.000
    O811    O    0.82585   0.46226   0.63380   1.000
    O812    O    0.85862   0.88959   0.65218   1.000
    O813    O    0.35861   0.88959   0.65219   1.000
    O814    O    0.85837   0.38974   0.65237   1.000
    O815    O    0.35836   0.38974   0.65237   1.000
    O816    O    0.34120   0.51648   0.63970   1.000
    O817    O    0.35872   0.57261   0.64164   1.000
    O818    O    0.34125   0.01628   0.63966   1.000
    O819    O    0.35866   0.07241   0.64168   1.000
    O820    O    0.84121   0.51648   0.63971   1.000
    O821    O    0.85873   0.57261   0.64164   1.000
    O822    O    0.84126   0.01628   0.63966   1.000
    O823    O    0.85868   0.07241   0.64167   1.000
    O824    O    0.88232   0.99815   0.65651   1.000
    O825    O    0.38230   0.99815   0.65651   1.000
    O826    O    0.38220   0.49831   0.65662   1.000
    O827    O    0.88221   0.49831   0.65662   1.000
    O828    O    0.91908   0.61248   0.67632   1.000
    O829    O    0.41906   0.61248   0.67632   1.000
    O830    O    0.91898   0.11235   0.67636   1.000
    O831    O    0.41897   0.11235   0.67637   1.000
    O832    O    0.41767   0.86959   0.67190   1.000
    O833    O    0.49509   0.87127   0.69624   1.000
    O834    O    0.42338   0.81059   0.70944   1.000
    O835    O    0.91768   0.86959   0.67190   1.000
    O836    O    0.99509   0.87127   0.69621   1.000
    O837    O    0.92338   0.81058   0.70944   1.000
    O838    O    0.41743   0.36971   0.67197   1.000
    O839    O    0.49484   0.37141   0.69630   1.000
    O840    O    0.42311   0.31065   0.70941   1.000
    O841    O    0.91743   0.36971   0.67198   1.000
    O842    O    0.99484   0.37141   0.69630   1.000
    O843    O    0.92312   0.31065   0.70941   1.000
    O844    O    0.47747   0.66591   0.70569   1.000
    O845    O    0.97747   0.66591   0.70567   1.000
    O846    O    0.47726   0.16585   0.70570   1.000
    O847    O    0.97726   0.16585   0.70571   1.000
    O848    O    0.96945   0.72582   0.73887   1.000
    O849    O    0.04738   0.71859   0.76106   1.000
    O850    O    0.96912   0.22579   0.73885   1.000
    O851    O    0.04707   0.21856   0.76104   1.000
    O852    O    0.46912   0.22579   0.73885   1.000
    O853    O    0.54708   0.21856   0.76104   1.000
    O854    O    0.46945   0.72582   0.73890   1.000
    O855    O    0.54739   0.71859   0.76108   1.000
    O856    O    0.58688   0.84920   0.72801   1.000
    O857    O    0.08687   0.84920   0.72800   1.000
    O858    O    0.08649   0.34929   0.72804   1.000
    O859    O    0.58649   0.34929   0.72804   1.000
    O860    O    0.07056   0.88881   0.73196   1.000
    O861    O    0.57057   0.88881   0.73199   1.000
    O862    O    0.57029   0.38893   0.73207   1.000
    O863    O    0.07028   0.38894   0.73207   1.000
    O864    O    0.13184   0.89769   0.76986   1.000
    O865    O    0.63186   0.89769   0.76987   1.000
    O866    O    0.13156   0.39774   0.76990   1.000
    O867    O    0.63157   0.39774   0.76990   1.000
    O868    O    0.91875   0.25952   0.75957   1.000
    O869    O    0.87667   0.27590   0.77321   1.000
    O870    O    0.41874   0.25952   0.75957   1.000
    O871    O    0.37666   0.27590   0.77321   1.000
    O872    O    0.91905   0.75952   0.75965   1.000
    O873    O    0.87696   0.77588   0.77328   1.000
    O874    O    0.41904   0.75952   0.75965   1.000
    O875    O    0.37695   0.77589   0.77328   1.000
    O876    O    0.41618   0.22502   0.80013   1.000
    O877    O    0.91619   0.22502   0.80013   1.000
    O878    O    0.91651   0.72503   0.80022   1.000
    O879    O    0.41650   0.72503   0.80022   1.000
    O880    O    0.12772   0.17240   0.80100   1.000
    O881    O    0.62774   0.17240   0.80100   1.000
    O882    O    0.12805   0.67245   0.80109   1.000
    O883    O    0.62806   0.67245   0.80109   1.000
    O884    O    0.71775   0.37297   0.80688   1.000
    O885    O    0.21774   0.37297   0.80689   1.000
    O886    O    0.71813   0.87305   0.80691   1.000
    O887    O    0.21812   0.87305   0.80691   1.000
    O888    O    0.83316   0.28534   0.79642   1.000
    O889    O    0.33315   0.28534   0.79642   1.000
    O890    O    0.83345   0.78533   0.79649   1.000
    O891    O    0.33344   0.78533   0.79649   1.000
    O892    O    0.84750   0.25098   0.82345   1.000
    O893    O    0.34749   0.25098   0.82345   1.000
    O894    O    0.84780   0.75098   0.82353   1.000
    O895    O    0.34779   0.75098   0.82353   1.000
    O896    O    0.19711   0.90765   0.80918   1.000
    O897    O    0.17763   0.94905   0.81432   1.000
    O898    O    0.69713   0.90765   0.80918   1.000
    O899    O    0.67764   0.94905   0.81433   1.000
    O900    O    0.19682   0.40762   0.80918   1.000
    O901    O    0.17744   0.44908   0.81435   1.000
    O902    O    0.69683   0.40762   0.80917   1.000
    O903    O    0.67745   0.44908   0.81434   1.000
    O904    O    0.66462   0.98825   0.82187   1.000
    O905    O    0.16460   0.98825   0.82187   1.000
    O906    O    0.66452   0.48833   0.82191   1.000
    O907    O    0.16451   0.48833   0.82191   1.000
    O908    O    0.11105   0.20883   0.81939   1.000
    O909    O    0.10471   0.24723   0.85148   1.000
    O910    O    0.61107   0.20883   0.81939   1.000
    O911    O    0.60472   0.24723   0.85147   1.000
    O912    O    0.11135   0.70887   0.81946   1.000
    O913    O    0.10498   0.74726   0.85153   1.000
    O914    O    0.61136   0.70886   0.81946   1.000
    O915    O    0.60500   0.74726   0.85153   1.000
    O916    O    0.75944   0.41578   0.84682   1.000
    O917    O    0.25943   0.41578   0.84683   1.000
    O918    O    0.75975   0.91587   0.84689   1.000
    O919    O    0.25974   0.91587   0.84689   1.000
    O920    O    0.15841   0.20392   0.86147   1.000
    O921    O    0.65843   0.20392   0.86147   1.000
    O922    O    0.15874   0.70399   0.86154   1.000
    O923    O    0.65875   0.70398   0.86154   1.000
    O924    O    0.37150   0.22002   0.83969   1.000
    O925    O    0.40332   0.19271   0.84452   1.000
    O926    O    0.87151   0.22002   0.83969   1.000
    O927    O    0.90333   0.19271   0.84452   1.000
    O928    O    0.37181   0.72003   0.83978   1.000
    O929    O    0.40365   0.69272   0.84462   1.000
    O930    O    0.87183   0.72003   0.83978   1.000
    O931    O    0.90366   0.69272   0.84462   1.000
    O932    O    0.22107   0.99898   0.85676   1.000
    O933    O    0.72108   0.99898   0.85676   1.000
    O934    O    0.72098   0.49900   0.85675   1.000
    O935    O    0.22097   0.49900   0.85676   1.000
    O936    O    0.30885   0.21057   0.89132   1.000
    O937    O    0.80887   0.21057   0.89132   1.000
    O938    O    0.80916   0.71060   0.89139   1.000
    O939    O    0.30915   0.71060   0.89139   1.000
    O940    O    0.81577   0.42623   0.88212   1.000
    O941    O    0.80256   0.46530   0.88936   1.000
    O942    O    0.31576   0.42623   0.88212   1.000
    O943    O    0.30255   0.46530   0.88932   1.000
    O944    O    0.31607   0.92639   0.88222   1.000
    O945    O    0.30276   0.96541   0.88945   1.000
    O946    O    0.81609   0.92639   0.88222   1.000
    O947    O    0.80278   0.96541   0.88945   1.000
    O948    O    0.78347   0.50706   0.89411   1.000
    O949    O    0.76582   0.55135   0.89852   1.000
    O950    O    0.28346   0.50706   0.89408   1.000
    O951    O    0.26581   0.55135   0.89853   1.000
    O952    O    0.28357   0.00712   0.89418   1.000
    O953    O    0.26582   0.05136   0.89856   1.000
    O954    O    0.78359   0.00712   0.89418   1.000
    O955    O    0.76583   0.05136   0.89856   1.000
    O956    O    0.60994   0.28712   0.89644   1.000
    O957    O    0.64782   0.26707   0.91436   1.000
    O958    O    0.10992   0.28712   0.89644   1.000
    O959    O    0.14780   0.26707   0.91437   1.000
    O960    O    0.61020   0.78716   0.89647   1.000
    O961    O    0.64811   0.76713   0.91440   1.000
    O962    O    0.11019   0.78716   0.89647   1.000
    O963    O    0.14809   0.76713   0.91440   1.000
    O964    O    0.74861   0.09330   0.90331   1.000
    O965    O    0.74739   0.14692   0.91298   1.000
    O966    O    0.24859   0.09330   0.90331   1.000
    O967    O    0.24737   0.14692   0.91298   1.000
    O968    O    0.74868   0.59334   0.90330   1.000
    O969    O    0.74758   0.64699   0.91301   1.000
    O970    O    0.24866   0.59334   0.90330   1.000
    O971    O    0.24757   0.64699   0.91301   1.000
    O972    O    0.72886   0.20342   0.91604   1.000
    O973    O    0.68062   0.24006   0.91962   1.000
    O974    O    0.22885   0.20342   0.91604   1.000
    O975    O    0.18061   0.24005   0.91962   1.000
    O976    O    0.72917   0.70350   0.91610   1.000
    O977    O    0.68094   0.74014   0.91967   1.000
    O978    O    0.22915   0.70350   0.91610   1.000
    O979    O    0.18093   0.74014   0.91967   1.000
    O980    O    0.33789   0.51115   0.92580   1.000
    O981    O    0.83790   0.51115   0.92583   1.000
    O982    O    0.83803   0.01127   0.92594   1.000
    O983    O    0.33802   0.01127   0.92594   1.000
    O984    O    0.80784   0.60246   0.93505   1.000
    O985    O    0.30783   0.60246   0.93495   1.000
    O986    O    0.80779   0.10248   0.93508   1.000
    O987    O    0.30778   0.10248   0.93508   1.000
loop_
    _geom_bond_atom_site_label_1
    _geom_bond_atom_site_label_2
    _geom_bond_distance
    _geom_bond_site_symmetry_2
    _ccdc_geom_bond_type
    C432   O452      0.62929      .   S
    C256   O452      0.62929      .   S
    C435   O453      0.62910      .   S
    C259   O453      0.62910      .   S
    C433   O454      0.62910      .   S
    C257   O454      0.62910      .   S
    C434   O455      0.62917      .   S
    C258   O455      0.62917      .   S
    C91    O456      0.54448      .   S
    C242   O456      0.54448  1_545   S
    C89    O457      0.54445      .   S
    C240   O457      0.54445  1_545   S
    C88    O458      0.54448      .   S
    C241   O458      0.54448      .   S
    C90    O459      0.54430      .   S
    C243   O459      0.54430      .   S
    C344   O460      0.69050      .   S
    C348   O460      0.69050      .   S
    C344   O461      0.66761      .   S
    C224   O461      0.66761      .   S
    C344   O462      1.00836  1_554   S
    C20    O462      1.00836      .   S
    C345   O463      0.69048      .   S
    C349   O463      0.69048      .   S
    C345   O464      0.66775      .   S
    C225   O464      0.66775      .   S
    C345   O465      1.00811  1_554   S
    C21    O465      1.00811      .   S
    C346   O466      0.69050      .   S
    C350   O466      0.69050      .   S
    C346   O467      0.66762      .   S
    C226   O467      0.66762      .   S
    C346   O468      1.00836  1_554   S
    C22    O468      1.00836      .   S
    C347   O469      0.69052      .   S
    C351   O469      0.69052      .   S
    C347   O470      0.66763      .   S
    C227   O470      0.66763      .   S
    C347   O471      1.00830  1_554   S
    C23    O471      1.00830      .   S
    C10    O472      1.02610      .   S
    C350   O472      1.02610      .   S
    C10    O473      0.98549      .   S
    C430   O473      0.98549      .   S
    C10    O474      1.03003      .   S
    C326   O474      1.03003      .   S
    C10    O475      1.00835      .   S
    C382   O475      1.00835  1_556   S
    C8     O476      1.02609      .   S
    C348   O476      1.02609      .   S
    C8     O477      0.98549      .   S
    C428   O477      0.98549      .   S
    C8     O478      1.03003      .   S
    C324   O478      1.03003      .   S
    C8     O479      1.00835      .   S
    C380   O479      1.00835  1_556   S
    C11    O480      1.02636      .   S
    C351   O480      1.02636      .   S
    C11    O481      0.98542      .   S
    C431   O481      0.98542      .   S
    C11    O482      1.03026      .   S
    C327   O482      1.03026      .   S
    C11    O483      1.00836      .   S
    C383   O483      1.00836  1_556   S
    C9     O484      1.02631      .   S
    C349   O484      1.02631      .   S
    C9     O485      0.98542      .   S
    C429   O485      0.98542      .   S
    C9     O486      1.03026      .   S
    C325   O486      1.03026      .   S
    C9     O487      1.00836      .   S
    C381   O487      1.00836  1_556   S
    C257   O488      0.65184      .   S
    C429   O488      0.65184      .   S
    C257   O489      0.74695      .   S
    C237   O489      0.74695      .   S
    C259   O490      0.65183      .   S
    C431   O490      0.65183      .   S
    C259   O491      0.74697      .   S
    C239   O491      0.74697      .   S
    C256   O492      0.65179      .   S
    C428   O492      0.65179      .   S
    C256   O493      0.74690      .   S
    C236   O493      0.74690      .   S
    C258   O494      0.65179      .   S
    C430   O494      0.65179      .   S
    C258   O495      0.74689      .   S
    C238   O495      0.74689      .   S
    C242   O496      0.70114  1_545   S
    C239   O496      0.70114      .   S
    C242   O497      0.69717      .   S
    C246   O497      0.69717      .   S
    C240   O498      0.70114  1_545   S
    C237   O498      0.70114      .   S
    C240   O499      0.69713      .   S
    C244   O499      0.69713      .   S
    C243   O500      0.70121      .   S
    C238   O500      0.70121      .   S
    C243   O501      0.69728      .   S
    C247   O501      0.69728      .   S
    C241   O502      0.70121      .   S
    C236   O502      0.70121      .   S
    C241   O503      0.69728      .   S
    C245   O503      0.69728      .   S
    C82    O504      0.54206      .   S
    C226   O504      0.54206      .   S
    C80    O505      0.54206      .   S
    C224   O505      0.54206      .   S
    C81    O506      0.54207      .   S
    C225   O506      0.54207      .   S
    C83    O507      0.54206      .   S
    C227   O507      0.54206      .   S
    C348   O508      0.66730      .   S
    C220   O508      0.66730      .   S
    C350   O509      0.66729      .   S
    C222   O509      0.66729      .   S
    C349   O510      0.66786      .   S
    C221   O510      0.66786      .   S
    C351   O511      0.66765      .   S
    C223   O511      0.66765      .   S
    C94    O512      0.54508      .   S
    C246   O512      0.54508      .   S
    C92    O513      0.54503      .   S
    C244   O513      0.54503      .   S
    C95    O514      0.54510      .   S
    C247   O514      0.54510      .   S
    C93    O515      0.54509      .   S
    C245   O515      0.54509      .   S
    C224   O516      0.67708      .   S
    C340   O516      0.67708      .   S
    C226   O517      0.67708      .   S
    C342   O517      0.67708      .   S
    C227   O518      0.67705      .   S
    C343   O518      0.67705      .   S
    C225   O519      0.67705      .   S
    C341   O519      0.67705      .   S
    C237   O520      0.69949  1_565   S
    C232   O520      0.69949      .   S
    C239   O521      0.69948  1_565   S
    C234   O521      0.69948      .   S
    C238   O522      0.69951      .   S
    C235   O522      0.69951      .   S
    C236   O523      0.69951      .   S
    C233   O523      0.69951      .   S
    C244   O524      0.69672      .   S
    C248   O524      0.69672      .   S
    C246   O525      0.69662      .   S
    C250   O525      0.69662      .   S
    C247   O526      0.69663      .   S
    C251   O526      0.69663      .   S
    C245   O527      0.69663      .   S
    C249   O527      0.69663      .   S
    C60    O528      0.54276      .   S
    C204   O528      0.54276      .   S
    C62    O529      0.54276      .   S
    C206   O529      0.54276      .   S
    C61    O530      0.54277      .   S
    C205   O530      0.54277      .   S
    C63    O531      0.54279      .   S
    C207   O531      0.54279      .   S
    C324   O532      0.67957      .   S
    C204   O532      0.67957      .   S
    C324   O533      0.67732      .   S
    C208   O533      0.67732      .   S
    C326   O534      0.67957      .   S
    C206   O534      0.67957      .   S
    C326   O535      0.67732      .   S
    C210   O535      0.67732      .   S
    C325   O536      0.67958      .   S
    C205   O536      0.67958      .   S
    C325   O537      0.67731      .   S
    C209   O537      0.67731      .   S
    C327   O538      0.67957      .   S
    C207   O538      0.67957      .   S
    C327   O539      0.67737      .   S
    C211   O539      0.67737      .   S
    C235   O540      0.54366      .   S
    C87    O540      0.54366      .   S
    C235   O541      0.69951      .   S
    C231   O541      0.69951      .   S
    C233   O542      0.54366      .   S
    C85    O542      0.54366      .   S
    C233   O543      0.69948      .   S
    C229   O543      0.69948      .   S
    C234   O544      0.54366      .   S
    C86    O544      0.54366      .   S
    C234   O545      0.69951      .   S
    C230   O545      0.69951      .   S
    C232   O546      0.54366      .   S
    C84    O546      0.54366      .   S
    C232   O547      0.69952      .   S
    C228   O547      0.69952      .   S
    C206   O548      0.66505      .   S
    C322   O548      0.66505      .   S
    C204   O549      0.66504      .   S
    C320   O549      0.66504      .   S
    C205   O550      0.66498      .   S
    C321   O550      0.66498      .   S
    C207   O551      0.66499      .   S
    C323   O551      0.66499      .   S
    C222   O552      0.67707      .   S
    C342   O552      0.67707      .   S
    C222   O553      0.54244      .   S
    C78    O553      0.54244      .   S
    C220   O554      0.67706      .   S
    C340   O554      0.67706      .   S
    C220   O555      0.54281      .   S
    C76    O555      0.54281      .   S
    C223   O556      0.67705      .   S
    C343   O556      0.67705      .   S
    C223   O557      0.54255      .   S
    C79    O557      0.54255      .   S
    C221   O558      0.67706      .   S
    C341   O558      0.67706      .   S
    C221   O559      0.54254      .   S
    C77    O559      0.54254      .   S
    C248   O560      0.70127      .   S
    C228   O560      0.70127      .   S
    C248   O561      0.54443      .   S
    C96    O561      0.54443      .   S
    C250   O562      0.70126      .   S
    C230   O562      0.70126      .   S
    C250   O563      0.54443      .   S
    C98    O563      0.54443      .   S
    C249   O564      0.70127      .   S
    C229   O564      0.70127      .   S
    C249   O565      0.54443      .   S
    C97    O565      0.54443      .   S
    C251   O566      0.70130      .   S
    C231   O566      0.70130      .   S
    C251   O567      0.54444      .   S
    C99    O567      0.54444      .   S
    C340   O568      1.04584      .   S
    C0     O568      1.04584      .   S
    C342   O569      1.04581      .   S
    C2     O569      1.04581      .   S
    C343   O570      1.04582      .   S
    C3     O570      1.04582      .   S
    C341   O571      1.04584      .   S
    C1     O571      1.04584      .   S
    C229   O572      0.74817      .   S
    C253   O572      0.74817      .   S
    C231   O573      0.74835      .   S
    C255   O573      0.74835      .   S
    C230   O574      0.74835      .   S
    C254   O574      0.74835      .   S
    C228   O575      0.74833      .   S
    C252   O575      0.74833      .   S
    C210   O576      0.54222      .   S
    C66    O576      0.54222      .   S
    C210   O577      0.66787      .   S
    C318   O577      0.66787      .   S
    C208   O578      0.54221      .   S
    C64    O578      0.54221      .   S
    C208   O579      0.66786      .   S
    C316   O579      0.66786      .   S
    C209   O580      0.54221      .   S
    C65    O580      0.54221      .   S
    C209   O581      0.66792      .   S
    C317   O581      0.66792      .   S
    C211   O582      0.54220      .   S
    C67    O582      0.54220      .   S
    C211   O583      0.66789      .   S
    C319   O583      0.66789      .   S
    C320   O584      0.68844      .   S
    C316   O584      0.68844      .   S
    C320   O585      1.02876      .   S
    C2     O585      1.02876  1_655   S
    C322   O586      0.68845      .   S
    C318   O586      0.68845      .   S
    C322   O587      1.02892      .   S
    C0     O587      1.02892      .   S
    C321   O588      0.68850      .   S
    C317   O588      0.68850      .   S
    C321   O589      1.02852      .   S
    C3     O589      1.02852  1_655   S
    C323   O590      0.68851      .   S
    C319   O590      0.68851      .   S
    C323   O591      1.02867      .   S
    C1     O591      1.02867      .   S
    C318   O592      1.01058      .   S
    C18    O592      1.01058      .   S
    C316   O593      1.01057      .   S
    C16    O593      1.01057      .   S
    C319   O594      1.01088      .   S
    C19    O594      1.01088      .   S
    C317   O595      1.01087      .   S
    C17    O595      1.01087      .   S
    C253   O596      0.64793      .   S
    C425   O596      0.64793      .   S
    C253   O597      0.63042      .   S
    C421   O597      0.63042      .   S
    C255   O598      0.64770      .   S
    C427   O598      0.64770      .   S
    C255   O599      0.63031      .   S
    C423   O599      0.63031      .   S
    C252   O600      0.64778      .   S
    C424   O600      0.64778      .   S
    C252   O601      0.63032      .   S
    C420   O601      0.63032      .   S
    C254   O602      0.64778      .   S
    C426   O602      0.64778      .   S
    C254   O603      0.63032      .   S
    C422   O603      0.63032      .   S
    C427   O604      0.97881  1_655   S
    C17    O604      0.97881      .   S
    C425   O605      0.97879      .   S
    C19    O605      0.97879      .   S
    C426   O606      0.97850  1_655   S
    C16    O606      0.97850      .   S
    C424   O607      0.97860      .   S
    C18    O607      0.97860      .   S
    C2     O608      1.02389  1_655   S
    C444   O608      1.02389      .   S
    C2     O609      1.02833      .   S
    C338   O609      1.02833      .   S
    C0     O610      1.02389      .   S
    C446   O610      1.02389      .   S
    C0     O611      1.02835      .   S
    C336   O611      1.02835      .   S
    C1     O612      1.02405      .   S
    C447   O612      1.02405      .   S
    C1     O613      1.02791      .   S
    C337   O613      1.02791      .   S
    C3     O614      1.02407  1_655   S
    C445   O614      1.02407      .   S
    C3     O615      1.02791      .   S
    C339   O615      1.02791      .   S
    C447   O616      0.64789      .   S
    C291   O616      0.64789      .   S
    C445   O617      0.64791      .   S
    C289   O617      0.64791      .   S
    C446   O618      0.64789      .   S
    C290   O618      0.64789      .   S
    C444   O619      0.64790      .   S
    C288   O619      0.64790      .   S
    C443   O620      0.99054      .   S
    C19    O620      0.99054      .   S
    C443   O621      0.63802      .   S
    C287   O621      0.63802      .   S
    C441   O622      0.99053      .   S
    C17    O622      0.99053      .   S
    C441   O623      0.63801      .   S
    C285   O623      0.63801      .   S
    C442   O624      0.99035      .   S
    C18    O624      0.99035      .   S
    C442   O625      0.63829      .   S
    C286   O625      0.63829      .   S
    C440   O626      0.99031      .   S
    C16    O626      0.99031      .   S
    C440   O627      0.63810      .   S
    C284   O627      0.63810      .   S
    C17    O628      1.01988      .   S
    C365   O628      1.01988      .   S
    C19    O629      1.01945      .   S
    C367   O629      1.01945      .   S
    C16    O630      1.01948      .   S
    C364   O630      1.01948      .   S
    C18    O631      1.01948      .   S
    C366   O631      1.01948      .   S
    C100   O632      0.54412      .   S
    C265   O632      0.54412      .   S
    C102   O633      0.54407      .   S
    C267   O633      0.54407      .   S
    C103   O634      0.54405  1_565   S
    C266   O634      0.54405      .   S
    C101   O635      0.54404  1_565   S
    C264   O635      0.54404      .   S
    C74    O636      0.54068      .   S
    C218   O636      0.54068      .   S
    C72    O637      0.54069      .   S
    C216   O637      0.54069      .   S
    C75    O638      0.54081      .   S
    C219   O638      0.54081      .   S
    C73    O639      0.54067      .   S
    C217   O639      0.54067      .   S
    C289   O640      0.75082      .   S
    C269   O640      0.75082      .   S
    C289   O641      0.63050      .   S
    C449   O641      0.63050      .   S
    C291   O642      0.75078      .   S
    C271   O642      0.75078      .   S
    C291   O643      0.63051      .   S
    C451   O643      0.63051      .   S
    C288   O644      0.75081      .   S
    C268   O644      0.75081      .   S
    C288   O645      0.63054      .   S
    C448   O645      0.63054      .   S
    C290   O646      0.75077      .   S
    C270   O646      0.75077      .   S
    C290   O647      0.63053      .   S
    C450   O647      0.63053      .   S
    C265   O648      0.69874      .   S
    C268   O648      0.69874      .   S
    C265   O649      0.70244      .   S
    C261   O649      0.70244      .   S
    C267   O650      0.69882      .   S
    C270   O650      0.69882      .   S
    C267   O651      0.70243      .   S
    C263   O651      0.70243      .   S
    C264   O652      0.69878  1_545   S
    C269   O652      0.69878      .   S
    C264   O653      0.70250      .   S
    C260   O653      0.70250      .   S
    C266   O654      0.69885  1_545   S
    C271   O654      0.69885      .   S
    C266   O655      0.70249      .   S
    C262   O655      0.70249      .   S
    C268   O656      0.70099      .   S
    C272   O656      0.70099      .   S
    C269   O657      0.70154      .   S
    C273   O657      0.70154      .   S
    C270   O658      0.70148      .   S
    C274   O658      0.70148      .   S
    C271   O659      0.70148      .   S
    C275   O659      0.70148      .   S
    C285   O660      0.74528      .   S
    C261   O660      0.74528      .   S
    C285   O661      0.64278      .   S
    C437   O661      0.64278      .   S
    C287   O662      0.74522      .   S
    C263   O662      0.74522      .   S
    C287   O663      0.64278      .   S
    C439   O663      0.64278      .   S
    C284   O664      0.74537      .   S
    C260   O664      0.74537      .   S
    C284   O665      0.64272      .   S
    C436   O665      0.64272      .   S
    C286   O666      0.74538      .   S
    C262   O666      0.74538      .   S
    C286   O667      0.64273      .   S
    C438   O667      0.64273      .   S
    C263   O668      0.70111      .   S
    C283   O668      0.70111      .   S
    C261   O669      0.70102      .   S
    C281   O669      0.70102      .   S
    C262   O670      0.70097      .   S
    C282   O670      0.70097      .   S
    C260   O671      0.70103      .   S
    C280   O671      0.70103      .   S
    C272   O672      0.54528      .   S
    C104   O672      0.54528      .   S
    C272   O673      0.69638      .   S
    C277   O673      0.69638      .   S
    C275   O674      0.54464      .   S
    C107   O674      0.54464      .   S
    C275   O675      0.69640  1_565   S
    C278   O675      0.69640      .   S
    C273   O676      0.54456      .   S
    C105   O676      0.54456      .   S
    C273   O677      0.69640  1_565   S
    C276   O677      0.69640      .   S
    C274   O678      0.54453      .   S
    C106   O678      0.54453      .   S
    C274   O679      0.69644      .   S
    C279   O679      0.69644      .   S
    C218   O680      0.67456      .   S
    C338   O680      0.67456      .   S
    C218   O681      0.66833      .   S
    C334   O681      0.66833      .   S
    C216   O682      0.67457      .   S
    C336   O682      0.67457      .   S
    C216   O683      0.66832      .   S
    C332   O683      0.66832      .   S
    C219   O684      0.67455      .   S
    C339   O684      0.67455      .   S
    C219   O685      0.66780      .   S
    C335   O685      0.66780      .   S
    C217   O686      0.67455      .   S
    C337   O686      0.67455      .   S
    C217   O687      0.66837      .   S
    C333   O687      0.66837      .   S
    C439   O688      1.03411      .   S
    C27    O688      1.03411      .   S
    C437   O689      1.03406      .   S
    C25    O689      1.03406      .   S
    C336   O690      0.67728      .   S
    C212   O690      0.67728      .   S
    C338   O691      0.67729      .   S
    C214   O691      0.67729      .   S
    C337   O692      0.67722      .   S
    C213   O692      0.67722      .   S
    C339   O693      0.67722      .   S
    C215   O693      0.67722      .   S
    C438   O694      1.03505      .   S
    C26    O694      1.03505      .   S
    C436   O695      1.03505      .   S
    C24    O695      1.03505      .   S
    C281   O696      0.69679      .   S
    C277   O696      0.69679      .   S
    C281   O697      0.54359      .   S
    C113   O697      0.54359      .   S
    C283   O698      0.69680      .   S
    C279   O698      0.69680      .   S
    C283   O699      0.54358      .   S
    C115   O699      0.54358      .   S
    C282   O700      0.69688      .   S
    C278   O700      0.69688      .   S
    C282   O701      0.54362      .   S
    C114   O701      0.54362      .   S
    C280   O702      0.69684      .   S
    C276   O702      0.69684      .   S
    C280   O703      0.54359      .   S
    C112   O703      0.54359      .   S
    C277   O704      0.54469      .   S
    C109   O704      0.54469      .   S
    C279   O705      0.54468      .   S
    C111   O705      0.54468      .   S
    C278   O706      0.54425      .   S
    C110   O706      0.54425      .   S
    C276   O707      0.54468      .   S
    C108   O707      0.54468      .   S
    C364   O708      0.66759      .   S
    C300   O708      0.66759      .   S
    C364   O709      0.69152      .   S
    C368   O709      0.69152      .   S
    C366   O710      0.66759      .   S
    C302   O710      0.66759      .   S
    C366   O711      0.69153      .   S
    C370   O711      0.69153      .   S
    C367   O712      0.66785      .   S
    C303   O712      0.66785      .   S
    C367   O713      0.69183      .   S
    C371   O713      0.69183      .   S
    C365   O714      0.66754      .   S
    C301   O714      0.66754      .   S
    C365   O715      0.69162      .   S
    C369   O715      0.69162      .   S
    C334   O716      1.01221      .   S
    C26    O716      1.01221      .   S
    C334   O717      0.69163      .   S
    C330   O717      0.69163      .   S
    C332   O718      1.01222      .   S
    C24    O718      1.01222      .   S
    C332   O719      0.69162      .   S
    C328   O719      0.69162      .   S
    C335   O720      1.01191      .   S
    C27    O720      1.01191      .   S
    C335   O721      0.69175      .   S
    C331   O721      0.69175      .   S
    C333   O722      1.01171      .   S
    C25    O722      1.01171      .   S
    C333   O723      0.69149      .   S
    C329   O723      0.69149      .   S
    C124   O724      0.54207      .   S
    C302   O724      0.54207      .   S
    C126   O725      0.54198      .   S
    C300   O725      0.54198  1_455   S
    C127   O726      0.54198      .   S
    C301   O726      0.54198  1_455   S
    C125   O727      0.54207      .   S
    C303   O727      0.54207      .   S
    C214   O728      0.54198  1_655   S
    C68    O728      0.54198      .   S
    C214   O729      0.66754      .   S
    C330   O729      0.66754      .   S
    C212   O730      0.54207      .   S
    C70    O730      0.54207      .   S
    C212   O731      0.66753      .   S
    C328   O731      0.66753      .   S
    C213   O732      0.54207      .   S
    C71    O732      0.54207      .   S
    C213   O733      0.66759      .   S
    C329   O733      0.66759      .   S
    C215   O734      0.54197  1_655   S
    C69    O734      0.54197      .   S
    C215   O735      0.66760      .   S
    C331   O735      0.66760      .   S
    C26    O736      1.01176      .   S
    C370   O736      1.01176      .   S
    C26    O737      1.03415      .   S
    C406   O737      1.03415      .   S
    C24    O738      1.01175      .   S
    C368   O738      1.01175      .   S
    C24    O739      1.03411      .   S
    C404   O739      1.03411      .   S
    C27    O740      1.01223      .   S
    C371   O740      1.01223      .   S
    C27    O741      1.03511      .   S
    C407   O741      1.03511      .   S
    C25    O742      1.01224      .   S
    C369   O742      1.01224      .   S
    C25    O743      1.03509      .   S
    C405   O743      1.03509      .   S
    C300   O744      0.67722      .   S
    C372   O744      0.67722      .   S
    C302   O745      0.67722      .   S
    C374   O745      0.67722      .   S
    C301   O746      0.67727      .   S
    C373   O746      0.67727      .   S
    C303   O747      0.67728      .   S
    C375   O747      0.67728      .   S
    C368   O748      0.66831      .   S
    C304   O748      0.66831      .   S
    C370   O749      0.66830      .   S
    C306   O749      0.66830      .   S
    C369   O750      0.66833      .   S
    C305   O750      0.66833      .   S
    C371   O751      0.66833      .   S
    C307   O751      0.66833      .   S
    C330   O752      1.01984      .   S
    C6     O752      1.01984      .   S
    C328   O753      1.01984      .   S
    C4     O753      1.01984      .   S
    C331   O754      1.01950      .   S
    C7     O754      1.01950      .   S
    C329   O755      1.01951      .   S
    C5     O755      1.01951      .   S
    C53    O756      0.54467      .   S
    C189   O756      0.54467      .   S
    C55    O757      0.54467      .   S
    C191   O757      0.54467      .   S
    C52    O758      0.54468      .   S
    C188   O758      0.54468      .   S
    C54    O759      0.54468      .   S
    C190   O759      0.54468      .   S
    C59    O760      0.54358      .   S
    C195   O760      0.54358      .   S
    C57    O761      0.54359      .   S
    C193   O761      0.54359      .   S
    C56    O762      0.54359      .   S
    C192   O762      0.54359      .   S
    C58    O763      0.54358      .   S
    C194   O763      0.54358      .   S
    C191   O764      0.69683      .   S
    C195   O764      0.69683      .   S
    C191   O765      0.69640      .   S
    C186   O765      0.69640  1_545   S
    C189   O766      0.69683      .   S
    C193   O766      0.69683      .   S
    C189   O767      0.69639      .   S
    C184   O767      0.69639  1_545   S
    C188   O768      0.69682      .   S
    C192   O768      0.69682      .   S
    C188   O769      0.69644      .   S
    C185   O769      0.69644      .   S
    C190   O770      0.69681      .   S
    C194   O770      0.69681      .   S
    C190   O771      0.69644      .   S
    C187   O771      0.69644      .   S
    C195   O772      0.70105      .   S
    C175   O772      0.70105      .   S
    C193   O773      0.70106      .   S
    C173   O773      0.70106      .   S
    C194   O774      0.70103      .   S
    C174   O774      0.70103      .   S
    C192   O775      0.70096      .   S
    C172   O775      0.70096      .   S
    C405   O776      0.64271      .   S
    C197   O776      0.64271      .   S
    C407   O777      0.64272      .   S
    C199   O777      0.64272      .   S
    C372   O778      0.67456      .   S
    C304   O778      0.67456      .   S
    C372   O779      1.02795      .   S
    C12    O779      1.02795      .   S
    C374   O780      0.67456      .   S
    C306   O780      0.67456      .   S
    C374   O781      1.02797      .   S
    C14    O781      1.02797      .   S
    C375   O782      0.67457      .   S
    C307   O782      0.67457      .   S
    C375   O783      1.02840      .   S
    C15    O783      1.02840      .   S
    C373   O784      0.67457      .   S
    C305   O784      0.67457      .   S
    C373   O785      1.02805      .   S
    C13    O785      1.02805      .   S
    C404   O786      0.64277      .   S
    C196   O786      0.64277      .   S
    C406   O787      0.64276      .   S
    C198   O787      0.64276      .   S
    C306   O788      0.54071      .   S
    C130   O788      0.54071      .   S
    C304   O789      0.54051      .   S
    C128   O789      0.54051      .   S
    C307   O790      0.54068      .   S
    C131   O790      0.54068      .   S
    C305   O791      0.54048      .   S
    C129   O791      0.54048      .   S
    C49    O792      0.54464      .   S
    C185   O792      0.54464      .   S
    C51    O793      0.54457      .   S
    C187   O793      0.54457      .   S
    C50    O794      0.54464      .   S
    C186   O794      0.54464      .   S
    C48    O795      0.54465      .   S
    C184   O795      0.54465      .   S
    C187   O796      0.70152      .   S
    C183   O796      0.70152      .   S
    C417   O797      0.63050      .   S
    C201   O797      0.63050      .   S
    C185   O798      0.70146      .   S
    C181   O798      0.70146      .   S
    C419   O799      0.63054      .   S
    C203   O799      0.63054      .   S
    C186   O800      0.70148      .   S
    C182   O800      0.70148      .   S
    C184   O801      0.70147      .   S
    C180   O801      0.70147      .   S
    C416   O802      0.63054      .   S
    C200   O802      0.63054      .   S
    C418   O803      0.63052      .   S
    C202   O803      0.63052      .   S
    C173   O804      0.74539      .   S
    C197   O804      0.74539      .   S
    C173   O805      0.70250      .   S
    C177   O805      0.70250      .   S
    C175   O806      0.74539      .   S
    C199   O806      0.74539      .   S
    C175   O807      0.70249      .   S
    C179   O807      0.70249      .   S
    C172   O808      0.74534      .   S
    C196   O808      0.74534      .   S
    C172   O809      0.70245      .   S
    C176   O809      0.70245      .   S
    C174   O810      0.74527      .   S
    C198   O810      0.74527      .   S
    C174   O811      0.70244      .   S
    C178   O811      0.70244      .   S
    C199   O812      0.63809      .   S
    C411   O812      0.63809      .   S
    C197   O813      0.63810      .   S
    C409   O813      0.63810      .   S
    C198   O814      0.63803      .   S
    C410   O814      0.63803      .   S
    C196   O815      0.63802      .   S
    C408   O815      0.63802      .   S
    C181   O816      0.69884      .   S
    C176   O816      0.69884      .   S
    C181   O817      0.75077      .   S
    C201   O817      0.75077      .   S
    C180   O818      0.69885      .   S
    C177   O818      0.69885  1_565   S
    C180   O819      0.75078      .   S
    C200   O819      0.75078      .   S
    C183   O820      0.69883      .   S
    C178   O820      0.69883      .   S
    C183   O821      0.75077      .   S
    C203   O821      0.75077      .   S
    C182   O822      0.69883      .   S
    C179   O822      0.69883  1_565   S
    C182   O823      0.75079      .   S
    C202   O823      0.75079      .   S
    C179   O824      0.54406      .   S
    C46    O824      0.54406  1_545   S
    C177   O825      0.54407      .   S
    C44    O825      0.54407  1_545   S
    C176   O826      0.54407      .   S
    C45    O826      0.54407      .   S
    C178   O827      0.54406      .   S
    C47    O827      0.54406      .   S
    C203   O828      0.64788      .   S
    C415   O828      0.64788      .   S
    C201   O829      0.64790      .   S
    C413   O829      0.64790      .   S
    C202   O830      0.64793      .   S
    C414   O830      0.64793      .   S
    C200   O831      0.64790      .   S
    C412   O831      0.64790      .   S
    C5     O832      0.99033      .   S
    C409   O832      0.99033      .   S
    C5     O833      0.97858      .   S
    C395   O833      0.97858      .   S
    C5     O834      1.01054      .   S
    C353   O834      1.01054      .   S
    C7     O835      0.99032      .   S
    C411   O835      0.99032      .   S
    C7     O836      0.97842      .   S
    C393   O836      0.97842  1_455   S
    C7     O837      1.01054      .   S
    C355   O837      1.01054      .   S
    C4     O838      0.99053      .   S
    C408   O838      0.99053      .   S
    C4     O839      0.97879      .   S
    C394   O839      0.97879      .   S
    C4     O840      1.01092      .   S
    C352   O840      1.01092      .   S
    C6     O841      0.99053      .   S
    C410   O841      0.99053      .   S
    C6     O842      0.97870      .   S
    C392   O842      0.97870  1_455   S
    C6     O843      1.01092      .   S
    C354   O843      1.01092      .   S
    C413   O844      1.02388      .   S
    C15    O844      1.02388      .   S
    C415   O845      1.02396      .   S
    C13    O845      1.02396  1_455   S
    C412   O846      1.02409      .   S
    C14    O846      1.02409      .   S
    C414   O847      1.02408      .   S
    C12    O847      1.02408  1_455   S
    C13    O848      1.02898  1_455   S
    C359   O848      1.02898      .   S
    C13    O849      1.04606      .   S
    C377   O849      1.04606      .   S
    C12    O850      1.02850  1_455   S
    C358   O850      1.02850      .   S
    C12    O851      1.04578      .   S
    C376   O851      1.04578      .   S
    C14    O852      1.02865      .   S
    C356   O852      1.02865      .   S
    C14    O853      1.04580      .   S
    C378   O853      1.04580      .   S
    C15    O854      1.02892      .   S
    C357   O854      1.02892      .   S
    C15    O855      1.04583      .   S
    C379   O855      1.04583      .   S
    C391   O856      0.63032      .   S
    C167   O856      0.63032      .   S
    C389   O857      0.63032      .   S
    C165   O857      0.63032      .   S
    C388   O858      0.63031      .   S
    C164   O858      0.63031      .   S
    C390   O859      0.63030      .   S
    C166   O859      0.63030      .   S
    C393   O860      0.64785      .   S
    C165   O860      0.64785      .   S
    C395   O861      0.64779      .   S
    C167   O861      0.64779      .   S
    C394   O862      0.64780      .   S
    C166   O862      0.64780      .   S
    C392   O863      0.64782      .   S
    C164   O863      0.64782      .   S
    C165   O864      0.74829      .   S
    C141   O864      0.74829      .   S
    C167   O865      0.74832      .   S
    C143   O865      0.74832      .   S
    C164   O866      0.74835      .   S
    C140   O866      0.74835      .   S
    C166   O867      0.74837      .   S
    C142   O867      0.74837      .   S
    C354   O868      0.68847      .   S
    C358   O868      0.68847      .   S
    C354   O869      0.66788      .   S
    C298   O869      0.66788      .   S
    C352   O870      0.68848      .   S
    C356   O870      0.68848      .   S
    C352   O871      0.66789      .   S
    C296   O871      0.66789      .   S
    C355   O872      0.68846      .   S
    C359   O872      0.68846      .   S
    C355   O873      0.66786      .   S
    C299   O873      0.66786      .   S
    C353   O874      0.68845      .   S
    C357   O874      0.68845      .   S
    C353   O875      0.66788      .   S
    C297   O875      0.66788      .   S
    C356   O876      0.66504      .   S
    C292   O876      0.66504      .   S
    C358   O877      0.66503      .   S
    C294   O877      0.66503      .   S
    C359   O878      0.66505      .   S
    C295   O878      0.66505      .   S
    C357   O879      0.66507      .   S
    C293   O879      0.66507      .   S
    C132   O880      0.54258      .   S
    C308   O880      0.54258      .   S
    C134   O881      0.54258      .   S
    C310   O881      0.54258      .   S
    C133   O882      0.54256      .   S
    C309   O882      0.54256      .   S
    C135   O883      0.54256      .   S
    C311   O883      0.54256      .   S
    C42    O884      0.54440      .   S
    C162   O884      0.54440      .   S
    C40    O885      0.54443      .   S
    C160   O885      0.54443      .   S
    C43    O886      0.54445      .   S
    C163   O886      0.54445      .   S
    C41    O887      0.54443      .   S
    C161   O887      0.54443      .   S
    C122   O888      0.54221      .   S
    C298   O888      0.54221      .   S
    C120   O889      0.54221      .   S
    C296   O889      0.54221      .   S
    C123   O890      0.54221      .   S
    C299   O890      0.54221      .   S
    C121   O891      0.54221      .   S
    C297   O891      0.54221      .   S
    C298   O892      0.67735      .   S
    C362   O892      0.67735      .   S
    C296   O893      0.67735      .   S
    C360   O893      0.67735      .   S
    C299   O894      0.67732      .   S
    C363   O894      0.67732      .   S
    C297   O895      0.67732      .   S
    C361   O895      0.67732      .   S
    C141   O896      0.70128      .   S
    C161   O896      0.70128      .   S
    C141   O897      0.69953      .   S
    C145   O897      0.69953      .   S
    C143   O898      0.70125      .   S
    C163   O898      0.70125      .   S
    C143   O899      0.69953      .   S
    C147   O899      0.69953      .   S
    C140   O900      0.70130      .   S
    C160   O900      0.70130      .   S
    C140   O901      0.69950      .   S
    C144   O901      0.69950      .   S
    C142   O902      0.70127      .   S
    C162   O902      0.70127      .   S
    C142   O903      0.69951      .   S
    C146   O903      0.69951      .   S
    C31    O904      0.54366      .   S
    C147   O904      0.54366      .   S
    C29    O905      0.54367      .   S
    C145   O905      0.54367      .   S
    C30    O906      0.54365      .   S
    C146   O906      0.54365      .   S
    C28    O907      0.54367      .   S
    C144   O907      0.54367      .   S
    C376   O908      0.67706      .   S
    C308   O908      0.67706      .   S
    C376   O909      0.67710      .   S
    C312   O909      0.67710      .   S
    C378   O910      0.67707      .   S
    C310   O910      0.67707      .   S
    C378   O911      0.67705      .   S
    C314   O911      0.67705      .   S
    C377   O912      0.67703      .   S
    C309   O912      0.67703      .   S
    C377   O913      0.67703      .   S
    C313   O913      0.67703      .   S
    C379   O914      0.67703      .   S
    C311   O914      0.67703      .   S
    C379   O915      0.67703      .   S
    C315   O915      0.67703      .   S
    C162   O916      0.69669      .   S
    C158   O916      0.69669      .   S
    C160   O917      0.69663      .   S
    C156   O917      0.69663      .   S
    C163   O918      0.69663      .   S
    C159   O918      0.69663      .   S
    C161   O919      0.69663      .   S
    C157   O919      0.69663      .   S
    C308   O920      0.66759      .   S
    C384   O920      0.66759      .   S
    C310   O921      0.66759      .   S
    C386   O921      0.66759      .   S
    C309   O922      0.66761      .   S
    C385   O922      0.66761      .   S
    C311   O923      0.66762      .   S
    C387   O923      0.66762      .   S
    C292   O924      0.67959      .   S
    C360   O924      0.67959      .   S
    C292   O925      0.54277      .   S
    C116   O925      0.54277      .   S
    C294   O926      0.67958      .   S
    C362   O926      0.67958      .   S
    C294   O927      0.54278      .   S
    C118   O927      0.54278      .   S
    C293   O928      0.67957      .   S
    C361   O928      0.67957      .   S
    C293   O929      0.54276      .   S
    C117   O929      0.54276      .   S
    C295   O930      0.67957      .   S
    C363   O930      0.67957      .   S
    C295   O931      0.54276      .   S
    C119   O931      0.54276      .   S
    C145   O932      0.69948      .   S
    C148   O932      0.69948  1_545   S
    C147   O933      0.69948      .   S
    C150   O933      0.69948  1_545   S
    C146   O934      0.69951      .   S
    C151   O934      0.69951      .   S
    C144   O935      0.69951      .   S
    C149   O935      0.69951      .   S
    C360   O936      1.03026      .   S
    C20    O936      1.03026      .   S
    C362   O937      1.03027      .   S
    C22    O937      1.03027      .   S
    C363   O938      1.03006      .   S
    C23    O938      1.03006      .   S
    C361   O939      1.03005      .   S
    C21    O939      1.03005      .   S
    C158   O940      0.54509      .   S
    C38    O940      0.54509      .   S
    C158   O941      0.69717      .   S
    C154   O941      0.69717      .   S
    C156   O942      0.54509      .   S
    C36    O942      0.54509      .   S
    C156   O943      0.69706      .   S
    C152   O943      0.69706      .   S
    C157   O944      0.54508      .   S
    C37    O944      0.54508      .   S
    C157   O945      0.69718      .   S
    C153   O945      0.69718      .   S
    C159   O946      0.54507      .   S
    C39    O946      0.54507      .   S
    C159   O947      0.69718      .   S
    C155   O947      0.69718      .   S
    C151   O948      0.70114      .   S
    C154   O948      0.70114      .   S
    C151   O949      0.74689      .   S
    C171   O949      0.74689      .   S
    C149   O950      0.70100      .   S
    C152   O950      0.70100      .   S
    C149   O951      0.74688      .   S
    C169   O951      0.74688      .   S
    C148   O952      0.70114      .   S
    C153   O952      0.70114  1_565   S
    C148   O953      0.74693      .   S
    C168   O953      0.74693      .   S
    C150   O954      0.70114      .   S
    C155   O954      0.70114  1_565   S
    C150   O955      0.74692      .   S
    C170   O955      0.74692      .   S
    C314   O956      0.54206      .   S
    C138   O956      0.54206      .   S
    C314   O957      0.66764      .   S
    C382   O957      0.66764      .   S
    C312   O958      0.54205      .   S
    C136   O958      0.54205      .   S
    C312   O959      0.66759      .   S
    C380   O959      0.66759      .   S
    C315   O960      0.54207      .   S
    C139   O960      0.54207      .   S
    C315   O961      0.66765      .   S
    C383   O961      0.66765      .   S
    C313   O962      0.54207      .   S
    C137   O962      0.54207      .   S
    C313   O963      0.66765      .   S
    C381   O963      0.66765      .   S
    C398   O964      0.65180      .   S
    C170   O964      0.65180      .   S
    C398   O965      0.98544      .   S
    C22    O965      0.98544      .   S
    C396   O966      0.65180      .   S
    C168   O966      0.65180      .   S
    C396   O967      0.98545      .   S
    C20    O967      0.98545      .   S
    C399   O968      0.65178      .   S
    C171   O968      0.65178      .   S
    C399   O969      0.98550      .   S
    C23    O969      0.98550      .   S
    C397   O970      0.65177      .   S
    C169   O970      0.65177      .   S
    C397   O971      0.98550      .   S
    C21    O971      0.98550      .   S
    C386   O972      1.02635      .   S
    C22    O972      1.02635      .   S
    C386   O973      0.69051      .   S
    C382   O973      0.69051      .   S
    C384   O974      1.02635      .   S
    C20    O974      1.02635      .   S
    C384   O975      0.69052      .   S
    C380   O975      0.69052      .   S
    C387   O976      1.02606      .   S
    C23    O976      1.02606      .   S
    C387   O977      0.69050      .   S
    C383   O977      0.69050      .   S
    C385   O978      1.02607      .   S
    C21    O978      1.02607      .   S
    C385   O979      0.69050      .   S
    C381   O979      0.69050      .   S
    C152   O980      0.54474      .   S
    C33    O980      0.54474      .   S
    C154   O981      0.54448      .   S
    C35    O981      0.54448      .   S
    C155   O982      0.54442  1_565   S
    C34    O982      0.54442      .   S
    C153   O983      0.54444  1_565   S
    C32    O983      0.54444      .   S
    C171   O984      0.62917      .   S
    C403   O984      0.62917      .   S
    C169   O985      0.62874      .   S
    C401   O985      0.62874      .   S
    C170   O986      0.62917      .   S
    C402   O986      0.62917      .   S
    C168   O987      0.62915      .   S
    C400   O987      0.62915      .   S
