# CIF file generated by openbabel 2.4.90, see http://openbabel.sf.net
data_I
_chemical_name_common ''
_cell_length_a 19.673
_cell_length_b 24.252
_cell_length_c 15.389
_cell_angle_alpha 96.079
_cell_angle_beta 98.001
_cell_angle_gamma 113.54
_space_group_name_H-M_alt 'P 1'
_space_group_name_Hall 'P 1'
loop_
    _symmetry_equiv_pos_as_xyz
    x,y,z
loop_
    _atom_site_label
    _atom_site_type_symbol
    _atom_site_fract_x
    _atom_site_fract_y
    _atom_site_fract_z
    _atom_site_occupancy
    Zr0     Zr   0.49572   0.28795   0.29251   1.000
    Zr1     Zr   0.49606   0.78800   0.29252   1.000
    Zr2     Zr   0.99573   0.28795   0.29251   1.000
    Zr3     Zr   0.99606   0.78800   0.29252   1.000
    Zr4     Zr   0.44299   0.34186   0.66994   1.000
    Zr5     Zr   0.44323   0.84175   0.66992   1.000
    Zr6     Zr   0.94300   0.34186   0.66994   1.000
    Zr7     Zr   0.94324   0.84175   0.66992   1.000
    Zr8     Zr   0.22693   0.30838   0.06664   1.000
    Zr9     Zr   0.22722   0.80845   0.06669   1.000
    Zr10    Zr   0.72694   0.30838   0.06664   1.000
    Zr11    Zr   0.72723   0.80845   0.06669   1.000
    Zr12    Zr   0.00399   0.21198   0.70744   1.000
    Zr13    Zr   0.00433   0.71203   0.70740   1.000
    Zr14    Zr   0.50400   0.21198   0.70744   1.000
    Zr15    Zr   0.50433   0.71203   0.70745   1.000
    Zr16    Zr   0.05681   0.15823   0.33004   1.000
    Zr17    Zr   0.05705   0.65812   0.33001   1.000
    Zr18    Zr   0.55682   0.15823   0.33004   1.000
    Zr19    Zr   0.55706   0.65812   0.33001   1.000
    Zr20    Zr   0.27282   0.19153   0.93327   1.000
    Zr21    Zr   0.27311   0.69160   0.93332   1.000
    Zr22    Zr   0.77284   0.19153   0.93327   1.000
    Zr23    Zr   0.77312   0.69160   0.93332   1.000
    Zr24    Zr   0.24976   0.25022   0.49995   1.000
    Zr25    Zr   0.25030   0.74975   0.50001   1.000
    Zr26    Zr   0.74977   0.25021   0.49995   1.000
    Zr27    Zr   0.75031   0.74975   0.50001   1.000
    N28     N    0.25009   0.04649   0.14441   1.000
    N29     N    0.76254   0.47647   0.61048   1.000
    N30     N    0.24973   0.45343   0.85549   1.000
    N31     N    0.23744   0.02377   0.38953   1.000
    N32     N    0.73752   0.52351   0.38945   1.000
    N33     N    0.23751   0.52351   0.38939   1.000
    N34     N    0.74996   0.95349   0.85554   1.000
    N35     N    0.24995   0.95349   0.85554   1.000
    N36     N    0.73745   0.02377   0.38949   1.000
    N37     N    0.75032   0.54655   0.14445   1.000
    N38     N    0.26260   0.97621   0.61040   1.000
    N39     N    0.74975   0.45343   0.85549   1.000
    N40     N    0.75010   0.04649   0.14441   1.000
    N41     N    0.76262   0.97621   0.61040   1.000
    N42     N    0.26253   0.47647   0.61047   1.000
    N43     N    0.25031   0.54655   0.14444   1.000
    C44     C    0.12041   0.25645   0.19268   1.000
    O45     O    0.15565   0.27291   0.15063   1.000
    O46     O    0.09854   0.22292   0.24160   1.000
    O47     O    0.07551   0.26530   0.22687   1.000
    C48     C    0.66783   0.13152   0.36644   1.000
    O49     O    0.62511   0.13095   0.34723   1.000
    O50     O    0.69023   0.09505   0.37394   1.000
    O51     O    0.70151   0.17176   0.40917   1.000
    C52     C    0.27916   0.10242   0.92095   1.000
    O53     O    0.26852   0.05242   0.89900   1.000
    O54     O    0.26327   0.12467   0.91696   1.000
    C55     C    0.87934   0.24353   0.80720   1.000
    O56     O    0.84410   0.22705   0.84926   1.000
    O57     O    0.90123   0.27709   0.75830   1.000
    O58     O    0.92423   0.23466   0.77302   1.000
    C59     C    0.72082   0.39755   0.07902   1.000
    O60     O    0.73155   0.44757   0.10098   1.000
    O61     O    0.73665   0.37527   0.08299   1.000
    C62     C    0.77917   0.10242   0.92095   1.000
    O63     O    0.76854   0.05242   0.89900   1.000
    O64     O    0.76328   0.12467   0.91696   1.000
    C65     C    0.57809   0.21193   0.54704   1.000
    O66     O    0.55290   0.21236   0.59945   1.000
    O67     O    0.57189   0.19331   0.47169   1.000
    O68     O    0.63723   0.22528   0.52843   1.000
    C69     C    0.92148   0.28830   0.45279   1.000
    O70     O    0.94670   0.28777   0.40041   1.000
    O71     O    0.86233   0.27504   0.47140   1.000
    O72     O    0.92775   0.30689   0.52818   1.000
    C73     C    0.07322   0.36651   0.72624   1.000
    O74     O    0.03403   0.36896   0.71127   1.000
    O75     O    0.13193   0.39605   0.76947   1.000
    C76     C    0.63239   0.23204   0.86411   1.000
    O77     O    0.66702   0.25932   0.93382   1.000
    O78     O    0.68063   0.21773   0.89007   1.000
    O79     O    0.58974   0.22530   0.81257   1.000
    C80     C    0.42147   0.28830   0.45279   1.000
    O81     O    0.42774   0.30689   0.52818   1.000
    O82     O    0.36232   0.27504   0.47140   1.000
    O83     O    0.44669   0.28777   0.40041   1.000
    C84     C    0.07808   0.21193   0.54704   1.000
    O85     O    0.13721   0.22528   0.52843   1.000
    O86     O    0.05289   0.21236   0.59945   1.000
    O87     O    0.07188   0.19331   0.47169   1.000
    C88     C    0.86737   0.26789   0.13577   1.000
    O89     O    0.83275   0.24060   0.06608   1.000
    O90     O    0.91002   0.27464   0.18733   1.000
    O91     O    0.81914   0.28219   0.10982   1.000
    C92     C    0.40385   0.12248   0.65339   1.000
    O93     O    0.44056   0.14416   0.67955   1.000
    O94     O    0.35724   0.07340   0.63972   1.000
    C95     C    0.36736   0.26789   0.13579   1.000
    O96     O    0.41001   0.27464   0.18733   1.000
    O97     O    0.33273   0.24060   0.06609   1.000
    O98     O    0.31912   0.28219   0.10983   1.000
    C99     C    0.62042   0.25645   0.19268   1.000
    O100    O    0.65566   0.27291   0.15063   1.000
    O101    O    0.59855   0.22292   0.24160   1.000
    O102    O    0.57551   0.26530   0.22687   1.000
    C103    C    0.16782   0.13152   0.36646   1.000
    O104    O    0.12510   0.13095   0.34726   1.000
    O105    O    0.19022   0.09505   0.37397   1.000
    O106    O    0.20150   0.17176   0.40918   1.000
    C107    C    0.13238   0.23204   0.86411   1.000
    O108    O    0.18061   0.21773   0.89007   1.000
    O109    O    0.16701   0.25932   0.93382   1.000
    O110    O    0.08972   0.22530   0.81257   1.000
    C111    C    0.59606   0.37734   0.34663   1.000
    O112    O    0.64274   0.42639   0.36025   1.000
    O113    O    0.55932   0.35570   0.32045   1.000
    C114    C    0.83194   0.36861   0.63372   1.000
    O115    O    0.87469   0.36916   0.65285   1.000
    O116    O    0.80962   0.40512   0.62617   1.000
    O117    O    0.79819   0.32845   0.59096   1.000
    C118    C    0.22081   0.39755   0.07900   1.000
    O119    O    0.23664   0.37527   0.08297   1.000
    O120    O    0.23154   0.44757   0.10097   1.000
    C121    C    0.90386   0.12248   0.65339   1.000
    O122    O    0.94056   0.14416   0.67955   1.000
    O123    O    0.85725   0.07340   0.63971   1.000
    C124    C    0.57323   0.36651   0.72625   1.000
    O125    O    0.53404   0.36896   0.71127   1.000
    O126    O    0.63194   0.39605   0.76947   1.000
    C127    C    0.33193   0.36862   0.63372   1.000
    O128    O    0.29818   0.32845   0.59095   1.000
    O129    O    0.30960   0.40512   0.62616   1.000
    O130    O    0.37468   0.36916   0.65285   1.000
    C131    C    0.37933   0.24353   0.80720   1.000
    O132    O    0.42422   0.23466   0.77302   1.000
    O133    O    0.34409   0.22705   0.84926   1.000
    O134    O    0.40122   0.27709   0.75830   1.000
    C135    C    0.42649   0.13358   0.27377   1.000
    O136    O    0.46573   0.13114   0.28874   1.000
    O137    O    0.36782   0.10399   0.23051   1.000
    C138    C    0.92650   0.13357   0.27377   1.000
    O139    O    0.96573   0.13114   0.28874   1.000
    O140    O    0.86783   0.10398   0.23051   1.000
    C141    C    0.09604   0.37734   0.34663   1.000
    O142    O    0.14273   0.42639   0.36023   1.000
    O143    O    0.05931   0.35571   0.32045   1.000
    C144    C    0.77924   0.60243   0.92093   1.000
    O145    O    0.76851   0.55241   0.89897   1.000
    O146    O    0.76341   0.62471   0.91697   1.000
    C147    C    0.87965   0.74353   0.80728   1.000
    O148    O    0.92455   0.73468   0.77308   1.000
    O149    O    0.90151   0.77706   0.75836   1.000
    O150    O    0.84440   0.72707   0.84933   1.000
    C151    C    0.40400   0.62264   0.65333   1.000
    O152    O    0.44074   0.64428   0.67951   1.000
    O153    O    0.35731   0.57359   0.63969   1.000
    C154    C    0.22088   0.89756   0.07900   1.000
    O155    O    0.23677   0.87531   0.08299   1.000
    O156    O    0.23152   0.94756   0.10095   1.000
    C157    C    0.07859   0.71167   0.54717   1.000
    O158    O    0.07231   0.69309   0.47178   1.000
    O159    O    0.05336   0.71220   0.59954   1.000
    O160    O    0.13773   0.72493   0.52855   1.000
    C161    C    0.63269   0.73209   0.86416   1.000
    O162    O    0.59004   0.72534   0.81262   1.000
    O163    O    0.66732   0.75938   0.93387   1.000
    O164    O    0.68093   0.71779   0.89013   1.000
    C165    C    0.07356   0.86640   0.72617   1.000
    O166    O    0.13223   0.89599   0.76943   1.000
    O167    O    0.03432   0.86884   0.71119   1.000
    C168    C    0.37963   0.74353   0.80728   1.000
    O169    O    0.34439   0.72707   0.84933   1.000
    O170    O    0.40150   0.77706   0.75836   1.000
    O171    O    0.42454   0.73468   0.77309   1.000
    C172    C    0.62072   0.75645   0.19276   1.000
    O173    O    0.57583   0.76532   0.22694   1.000
    O174    O    0.59883   0.72289   0.24165   1.000
    O175    O    0.65596   0.77293   0.15070   1.000
    C176    C    0.57860   0.71167   0.54716   1.000
    O177    O    0.63774   0.72493   0.52855   1.000
    O178    O    0.57232   0.69309   0.47176   1.000
    O179    O    0.55337   0.71220   0.59955   1.000
    C180    C    0.86768   0.76794   0.13585   1.000
    O181    O    0.83304   0.74066   0.06614   1.000
    O182    O    0.91033   0.77468   0.18738   1.000
    O183    O    0.81944   0.78225   0.10988   1.000
    C184    C    0.36766   0.76794   0.13584   1.000
    O185    O    0.41032   0.77468   0.18738   1.000
    O186    O    0.33303   0.74067   0.06612   1.000
    O187    O    0.31943   0.78225   0.10987   1.000
    C188    C    0.16811   0.63136   0.36622   1.000
    O189    O    0.20187   0.67152   0.40899   1.000
    O190    O    0.19044   0.59486   0.37375   1.000
    O191    O    0.12536   0.63082   0.34710   1.000
    C192    C    0.92198   0.78805   0.45291   1.000
    O193    O    0.86285   0.77469   0.47151   1.000
    O194    O    0.92818   0.80666   0.52826   1.000
    O195    O    0.94717   0.78761   0.40050   1.000
    C196    C    0.12071   0.75645   0.19276   1.000
    O197    O    0.15595   0.77293   0.15070   1.000
    O198    O    0.07582   0.76532   0.22694   1.000
    O199    O    0.09882   0.72289   0.24165   1.000
    C200    C    0.59621   0.87750   0.34657   1.000
    O201    O    0.64282   0.92658   0.36023   1.000
    O202    O    0.55950   0.85581   0.32041   1.000
    C203    C    0.13268   0.73209   0.86416   1.000
    O204    O    0.09003   0.72534   0.81261   1.000
    O205    O    0.16731   0.75938   0.93387   1.000
    O206    O    0.18092   0.71779   0.89013   1.000
    C207    C    0.92684   0.63346   0.27368   1.000
    O208    O    0.86812   0.60393   0.23046   1.000
    O209    O    0.96602   0.63102   0.28864   1.000
    C210    C    0.27923   0.60243   0.92087   1.000
    O211    O    0.26340   0.62471   0.91694   1.000
    O212    O    0.26850   0.55241   0.89894   1.000
    C213    C    0.09620   0.87750   0.34656   1.000
    O214    O    0.14280   0.92658   0.36023   1.000
    O215    O    0.05949   0.85582   0.32041   1.000
    C216    C    0.72089   0.89756   0.07900   1.000
    O217    O    0.73679   0.87531   0.08299   1.000
    O218    O    0.73153   0.94756   0.10095   1.000
    C219    C    0.42198   0.78805   0.45292   1.000
    O220    O    0.44716   0.78761   0.40051   1.000
    O221    O    0.36284   0.77469   0.47153   1.000
    O222    O    0.42817   0.80666   0.52827   1.000
    C223    C    0.33222   0.86846   0.63348   1.000
    O224    O    0.29855   0.82822   0.59076   1.000
    O225    O    0.30982   0.90493   0.62598   1.000
    O226    O    0.37495   0.86902   0.65269   1.000
    C227    C    0.66812   0.63136   0.36622   1.000
    O228    O    0.62537   0.63082   0.34710   1.000
    O229    O    0.69045   0.59486   0.37376   1.000
    O230    O    0.70188   0.67152   0.40899   1.000
    C231    C    0.90402   0.62264   0.65333   1.000
    O232    O    0.94074   0.64428   0.67950   1.000
    O233    O    0.85733   0.57359   0.63970   1.000
    C234    C    0.42683   0.63347   0.27367   1.000
    O235    O    0.46602   0.63102   0.28866   1.000
    O236    O    0.36811   0.60393   0.23045   1.000
    C237    C    0.57357   0.86640   0.72619   1.000
    O238    O    0.53433   0.86884   0.71121   1.000
    O239    O    0.63224   0.89599   0.76944   1.000
    C240    C    0.83224   0.86846   0.63348   1.000
    O241    O    0.80983   0.90493   0.62598   1.000
    O242    O    0.79856   0.82821   0.59077   1.000
    O243    O    0.87496   0.86902   0.65269   1.000
loop_
    _geom_bond_atom_site_label_1
    _geom_bond_atom_site_label_2
    _geom_bond_distance
    _geom_bond_site_symmetry_2
    _ccdc_geom_bond_type
    C44    O45       1.00865      .   S
    Zr8    O45       2.03800      .   S
    C44    O46       1.16335      .   S
    Zr16   O46       2.17300      .   S
    C44    O47       1.16633      .   S
    Zr2    O47       2.19040  1_655   S
    C48    O49       0.84547      .   S
    Zr18   O49       1.72048      .   S
    C48    O50       1.14393      .   S
    N36    O50       2.28419      .   S
    C48    O51       1.02476      .   S
    Zr26   O51       2.02435      .   S
    C52    O53       1.14854      .   S
    N35    O53       2.28682  1_565   S
    C52    O54       0.72737      .   S
    Zr20   O54       1.54433      .   S
    C55    O56       1.00879      .   S
    Zr22   O56       2.03837      .   S
    C55    O57       1.16354      .   S
    Zr6    O57       2.17352      .   S
    C55    O58       1.16618      .   S
    Zr12   O58       2.18997  1_455   S
    C59    O60       1.14850      .   S
    N37    O60       2.28673      .   S
    C59    O61       0.72716      .   S
    Zr10   O61       1.54407      .   S
    C62    O63       1.14854      .   S
    N34    O63       2.28682  1_565   S
    C62    O64       0.72738      .   S
    Zr22   O64       1.54434      .   S
    C65    O66       1.00492      .   S
    Zr14   O66       2.03185      .   S
    C65    O67       1.17009      .   S
    Zr18   O67       2.18846      .   S
    C65    O68       1.16271      .   S
    Zr26   O68       2.17183      .   S
    C69    O70       1.00523      .   S
    Zr2    O70       2.03255      .   S
    C69    O71       1.16310      .   S
    Zr26   O71       2.17274      .   S
    C69    O72       1.17021      .   S
    Zr6    O72       2.18889      .   S
    C73    O74       0.80064      .   S
    Zr6    O74       1.64259  1_655   S
    C73    O75       1.14633      .   S
    N30    O75       2.28901      .   S
    C76    O77       1.15708      .   S
    Zr10   O77       2.16264  1_554   S
    C76    O78       1.16938      .   S
    Zr22   O78       2.19332      .   S
    C76    O79       1.01859      .   S
    Zr14   O79       2.06431      .   S
    C80    O81       1.17021      .   S
    Zr4    O81       2.18888      .   S
    C80    O82       1.16312      .   S
    Zr24   O82       2.17278      .   S
    C80    O83       1.00523      .   S
    Zr0    O83       2.03258      .   S
    C84    O85       1.16266      .   S
    Zr24   O85       2.17178      .   S
    C84    O86       1.00495      .   S
    Zr12   O86       2.03186      .   S
    C84    O87       1.17005      .   S
    Zr16   O87       2.18842      .   S
    C88    O89       1.15693      .   S
    Zr22   O89       2.16248  1_556   S
    C88    O90       1.01867      .   S
    Zr2    O90       2.06440      .   S
    C88    O91       1.16919      .   S
    Zr10   O91       2.19290      .   S
    C92    O93       0.72865      .   S
    Zr14   O93       1.58381      .   S
    C92    O94       1.15043      .   S
    N38    O94       2.29362  1_565   S
    C95    O96       1.01862      .   S
    Zr0    O96       2.06438      .   S
    C95    O97       1.15701      .   S
    Zr20   O97       2.16256  1_556   S
    C95    O98       1.16921      .   S
    Zr8    O98       2.19291      .   S
    C99    O100      1.00865      .   S
    Zr10   O100      2.03800      .   S
    C99    O101      1.16337      .   S
    Zr18   O101      2.17303      .   S
    C99    O102      1.16641      .   S
    Zr0    O102      2.19064      .   S
    C103   O104      0.84543      .   S
    Zr16   O104      1.72049      .   S
    C103   O105      1.14392      .   S
    N31    O105      2.28422      .   S
    C103   O106      1.02466      .   S
    Zr24   O106      2.02425      .   S
    C107   O108      1.16938      .   S
    Zr20   O108      2.19332      .   S
    C107   O109      1.15707      .   S
    Zr8    O109      2.16263  1_554   S
    C107   O110      1.01858      .   S
    Zr12   O110      2.06427      .   S
    C111   O112      1.15044      .   S
    N32    O112      2.29368      .   S
    C111   O113      0.72882      .   S
    Zr0    O113      1.58385      .   S
    C114   O115      0.84579      .   S
    Zr6    O115      1.72121      .   S
    C114   O116      1.14380      .   S
    N29    O116      2.28401      .   S
    C114   O117      1.02406      .   S
    Zr26   O117      2.02264      .   S
    C118   O119      0.72718      .   S
    Zr8    O119      1.54408      .   S
    C118   O120      1.14852      .   S
    N43    O120      2.28674      .   S
    C121   O122      0.72860      .   S
    Zr12   O122      1.58372  1_455   S
    C121   O123      1.15043      .   S
    N41    O123      2.29361  1_565   S
    C124   O125      0.80073      .   S
    Zr4    O125      1.64281      .   S
    C124   O126      1.14634      .   S
    N39    O126      2.28904      .   S
    C127   O128      1.02408      .   S
    Zr24   O128      2.02263      .   S
    C127   O129      1.14382      .   S
    N42    O129      2.28400      .   S
    C127   O130      0.84582      .   S
    Zr4    O130      1.72125      .   S
    C131   O132      1.16626      .   S
    Zr14   O132      2.19021      .   S
    C131   O133      1.00880      .   S
    Zr20   O133      2.03837      .   S
    C131   O134      1.16356      .   S
    Zr4    O134      2.17355      .   S
    C135   O136      0.80138      .   S
    Zr18   O136      1.64355      .   S
    C135   O137      1.14617      .   S
    N28    O137      2.28880      .   S
    C138   O139      0.80128      .   S
    Zr16   O139      1.64331  1_455   S
    C138   O140      1.14617      .   S
    N40    O140      2.28877      .   S
    C141   O142      1.15045      .   S
    N33    O142      2.29369      .   S
    C141   O143      0.72876      .   S
    Zr2    O143      1.58375  1_655   S
    C144   O145      1.14851      .   S
    N39    O145      2.28674      .   S
    C144   O146      0.72716      .   S
    Zr23   O146      1.54409      .   S
    C147   O148      1.16645      .   S
    Zr13   O148      2.19073  1_455   S
    C147   O149      1.16334      .   S
    Zr7    O149      2.17296      .   S
    C147   O150      1.00867      .   S
    Zr23   O150      2.03805      .   S
    C151   O152      0.72879      .   S
    Zr15   O152      1.58380      .   S
    C151   O153      1.15044      .   S
    N42    O153      2.29369      .   S
    C154   O155      0.72739      .   S
    Zr9    O155      1.54433      .   S
    C154   O156      1.14854      .   S
    N28    O156      2.28682  1_545   S
    C157   O158      1.17018      .   S
    Zr17   O158      2.18889      .   S
    C157   O159      1.00513      .   S
    Zr13   O159      2.03217      .   S
    C157   O160      1.16310      .   S
    Zr25   O160      2.17277      .   S
    C161   O162      1.01857      .   S
    Zr15   O162      2.06432      .   S
    C161   O163      1.15707      .   S
    Zr11   O163      2.16263  1_554   S
    C161   O164      1.16921      .   S
    Zr23   O164      2.19287      .   S
    C165   O166      1.14619      .   S
    N35    O166      2.28880      .   S
    C165   O167      0.80133      .   S
    Zr7    O167      1.64330  1_655   S
    C168   O169      1.00867      .   S
    Zr21   O169      2.03804      .   S
    C168   O170      1.16336      .   S
    Zr5    O170      2.17298      .   S
    C168   O171      1.16643      .   S
    Zr15   O171      2.19065      .   S
    C172   O173      1.16625      .   S
    Zr1    O173      2.19022      .   S
    C172   O174      1.16356      .   S
    Zr19   O174      2.17350      .   S
    C172   O175      1.00879      .   S
    Zr11   O175      2.03837      .   S
    C176   O177      1.16310      .   S
    Zr27   O177      2.17277      .   S
    C176   O178      1.17038      .   S
    Zr19   O178      2.18866      .   S
    C176   O179      1.00532      .   S
    Zr15   O179      2.03271      .   S
    C180   O181      1.15707      .   S
    Zr23   O181      2.16259  1_556   S
    C180   O182      1.01859      .   S
    Zr3    O182      2.06433      .   S
    C180   O183      1.16938      .   S
    Zr11   O183      2.19333      .   S
    C184   O185      1.01866      .   S
    Zr1    O185      2.06442      .   S
    C184   O186      1.15710      .   S
    Zr21   O186      2.16243  1_556   S
    C184   O187      1.16940      .   S
    Zr9    O187      2.19329      .   S
    C188   O189      1.02409      .   S
    Zr25   O189      2.02259      .   S
    C188   O190      1.14375      .   S
    N33    O190      2.28385      .   S
    C188   O191      0.84580      .   S
    Zr17   O191      1.72123      .   S
    C192   O193      1.16259      .   S
    Zr27   O193      2.17190      .   S
    C192   O194      1.17020      .   S
    Zr7    O194      2.18859      .   S
    C192   O195      1.00480      .   S
    Zr3    O195      2.03166      .   S
    C196   O197      1.00878      .   S
    Zr9    O197      2.03835      .   S
    C196   O198      1.16617      .   S
    Zr3    O198      2.18998  1_655   S
    C196   O199      1.16355      .   S
    Zr17   O199      2.17348      .   S
    C200   O201      1.15043      .   S
    N36    O201      2.29363  1_545   S
    C200   O202      0.72868      .   S
    Zr1    O202      1.58382      .   S
    C203   O204      1.01867      .   S
    Zr13   O204      2.06464      .   S
    C203   O205      1.15707      .   S
    Zr9    O205      2.16263  1_554   S
    C203   O206      1.16921      .   S
    Zr21   O206      2.19288      .   S
    C207   O208      1.14628      .   S
    N37    O208      2.28901      .   S
    C207   O209      0.80056      .   S
    Zr17   O209      1.64261  1_455   S
    C210   O211      0.72709      .   S
    Zr21   O211      1.54409      .   S
    C210   O212      1.14843      .   S
    N30    O212      2.28668      .   S
    C213   O214      1.15043      .   S
    N31    O214      2.29360  1_545   S
    C213   O215      0.72860      .   S
    Zr3    O215      1.58372  1_655   S
    C216   O217      0.72738      .   S
    Zr11   O217      1.54431      .   S
    C216   O218      1.14855      .   S
    N40    O218      2.28684  1_545   S
    C219   O220      1.00490      .   S
    Zr1    O220      2.03177      .   S
    C219   O221      1.16269      .   S
    Zr25   O221      2.17175      .   S
    C219   O222      1.17009      .   S
    Zr5    O222      2.18848      .   S
    C223   O224      1.02468      .   S
    Zr25   O224      2.02431      .   S
    C223   O225      1.14394      .   S
    N38    O225      2.28428      .   S
    C223   O226      0.84546      .   S
    Zr5    O226      1.72054      .   S
    C227   O228      0.84581      .   S
    Zr19   O228      1.72126      .   S
    C227   O229      1.14377      .   S
    N32    O229      2.28398      .   S
    C227   O230      1.02406      .   S
    Zr27   O230      2.02260      .   S
    C231   O232      0.72866      .   S
    Zr13   O232      1.58369  1_455   S
    C231   O233      1.15044      .   S
    N29    O233      2.29368      .   S
    C234   O235      0.80072      .   S
    Zr19   O235      1.64279      .   S
    C234   O236      1.14636      .   S
    N43    O236      2.28898      .   S
    C237   O238      0.80141      .   S
    Zr5    O238      1.64357      .   S
    C237   O239      1.14616      .   S
    N34    O239      2.28875      .   S
    C240   O241      1.14394      .   S
    N41    O241      2.28428      .   S
    C240   O242      1.02467      .   S
    Zr27   O242      2.02430      .   S
    C240   O243      0.84542      .   S
    Zr7    O243      1.72048      .   S
