# CIF file generated by openbabel 2.4.90, see http://openbabel.sf.net
data_I
_chemical_name_common ''
_cell_length_a 22.672
_cell_length_b 22.189
_cell_length_c 29.054
_cell_angle_alpha 90.096
_cell_angle_beta 90.041
_cell_angle_gamma 89.324
_space_group_name_H-M_alt 'P 1'
_space_group_name_Hall 'P 1'
loop_
    _symmetry_equiv_pos_as_xyz
    x,y,z
loop_
    _atom_site_label
    _atom_site_type_symbol
    _atom_site_fract_x
    _atom_site_fract_y
    _atom_site_fract_z
    _atom_site_occupancy
    Zn0     Zn   0.80740   0.83088   0.67780   1.000
    Zn1     Zn   0.37766   0.89592   0.76660   1.000
    Zn2     Zn   0.87767   0.89592   0.76660   1.000
    Zn3     Zn   0.24243   0.87738   0.76006   1.000
    Zn4     Zn   0.74244   0.87738   0.76006   1.000
    Zn5     Zn   0.34518   0.96369   0.68573   1.000
    Zn6     Zn   0.84519   0.96369   0.68573   1.000
    Zn7     Zn   0.19255   0.16807   0.17780   1.000
    Zn8     Zn   0.69255   0.16807   0.17780   1.000
    Zn9     Zn   0.12237   0.10192   0.26620   1.000
    Zn10    Zn   0.62237   0.10192   0.26620   1.000
    Zn11    Zn   0.25761   0.12257   0.25995   1.000
    Zn12    Zn   0.75761   0.12257   0.25995   1.000
    Zn13    Zn   0.15525   0.03419   0.18574   1.000
    Zn14    Zn   0.65526   0.03419   0.18574   1.000
    Zn15    Zn   0.44226   0.32860   0.67781   1.000
    Zn16    Zn   0.94227   0.32860   0.67781   1.000
    Zn17    Zn   0.36999   0.39566   0.76593   1.000
    Zn18    Zn   0.87000   0.39566   0.76593   1.000
    Zn19    Zn   0.00536   0.37466   0.76012   1.000
    Zn20    Zn   0.50537   0.37466   0.76012   1.000
    Zn21    Zn   0.40466   0.46307   0.68436   1.000
    Zn22    Zn   0.90467   0.46307   0.68436   1.000
    Zn23    Zn   0.05523   0.66971   0.17756   1.000
    Zn24    Zn   0.55524   0.66971   0.17756   1.000
    Zn25    Zn   0.12772   0.60417   0.26592   1.000
    Zn26    Zn   0.62772   0.60417   0.26592   1.000
    Zn27    Zn   0.49235   0.62498   0.25999   1.000
    Zn28    Zn   0.99236   0.62498   0.25999   1.000
    Zn29    Zn   0.09508   0.53680   0.18424   1.000
    Zn30    Zn   0.59508   0.53680   0.18424   1.000
    Zn31    Zn   0.30739   0.83088   0.67780   1.000
    O32     O    0.31054   0.90274   0.72200   1.000
    O33     O    0.81055   0.90274   0.72200   1.000
    O34     O    0.18969   0.09610   0.22182   1.000
    O35     O    0.68970   0.09610   0.22182   1.000
    O36     O    0.43747   0.40101   0.72170   1.000
    O37     O    0.93748   0.40101   0.72170   1.000
    O38     O    0.06034   0.59809   0.22159   1.000
    O39     O    0.56035   0.59809   0.22159   1.000
loop_
    _geom_bond_atom_site_label_1
    _geom_bond_atom_site_label_2
    _geom_bond_distance
    _geom_bond_site_symmetry_2
    _ccdc_geom_bond_type
    Zn29   O38       1.90209      .   S
    Zn30   O39       1.90209      .   S
    Zn14   O35       1.90134      .   S
    Zn13   O34       1.90133      .   S
    O39    Zn27      1.98902      .   S
    O38    Zn28      1.98879  1_455   S
    O34    Zn11      1.98992      .   S
    O35    Zn12      1.98989      .   S
    Zn21   O36       1.89898      .   S
    Zn22   O37       1.89897      .   S
    Zn5    O32       1.89403      .   S
    Zn6    O33       1.89403      .   S
    O37    Zn19      1.98375  1_655   S
    O36    Zn20      1.98396      .   S
    O32    Zn3       1.98711      .   S
    O33    Zn4       1.98711      .   S
    O32    Zn31      2.04759      .   S
    O32    Zn1       2.00255      .   S
    O33    Zn0       2.04759      .   S
    O33    Zn2       2.00257      .   S
    O34    Zn7       2.04924      .   S
    O34    Zn9       2.00170      .   S
    O35    Zn8       2.04923      .   S
    O35    Zn10      2.00172      .   S
    O36    Zn15      2.05156      .   S
    O36    Zn17      2.00337      .   S
    O37    Zn16      2.05156      .   S
    O37    Zn18      2.00337      .   S
    O38    Zn23      2.04395      .   S
    O38    Zn25      2.00297      .   S
    O39    Zn24      2.04395      .   S
    O39    Zn26      2.00297      .   S
