# CIF file generated by openbabel 2.4.90, see http://openbabel.sf.net
data_I
_chemical_name_common ''
_cell_length_a 22.672
_cell_length_b 22.189
_cell_length_c 29.054
_cell_angle_alpha 90.096
_cell_angle_beta 90.041
_cell_angle_gamma 89.324
_space_group_name_H-M_alt 'P 1'
_space_group_name_Hall 'P 1'
loop_
    _symmetry_equiv_pos_as_xyz
    x,y,z
loop_
    _atom_site_label
    _atom_site_type_symbol
    _atom_site_fract_x
    _atom_site_fract_y
    _atom_site_fract_z
    _atom_site_occupancy
    N0      N    0.44492   0.23355   0.04611   1.000
    N1      N    0.05419   0.76627   0.54627   1.000
    N2      N    0.48091   0.87896   0.39684   1.000
    N3      N    0.73070   0.62205   0.89637   1.000
    N4      N    0.23070   0.62205   0.89636   1.000
    N5      N    0.51876   0.11966   0.89729   1.000
    N6      N    0.01876   0.11966   0.89729   1.000
    N7      N    0.80274   0.73485   0.04606   1.000
    N8      N    0.30273   0.73485   0.04606   1.000
    N9      N    0.76888   0.37800   0.39622   1.000
    N10     N    0.26887   0.37800   0.39622   1.000
    N11     N    0.19537   0.26478   0.54600   1.000
    N12     N    0.94492   0.23355   0.04611   1.000
    N13     N    0.55420   0.76627   0.54627   1.000
    N14     N    0.98088   0.87896   0.39684   1.000
    N15     N    0.69538   0.26478   0.54600   1.000
    Zr16    Zr   0.43195   0.39260   0.72198   1.000
    Zr17    Zr   0.81665   0.89412   0.72244   1.000
    Zr18    Zr   0.68350   0.10457   0.22230   1.000
    Zr19    Zr   0.31664   0.89412   0.72244   1.000
    Zr20    Zr   0.56615   0.60675   0.22186   1.000
    Zr21    Zr   0.06614   0.60675   0.22186   1.000
    Zr22    Zr   0.18349   0.10457   0.22230   1.000
    Zr23    Zr   0.93195   0.39260   0.72198   1.000
    O24     O    0.86231   0.89211   0.62283   1.000
    O25     O    0.89298   0.85236   0.67654   1.000
    O26     O    0.73022   0.85300   0.67468   1.000
    O27     O    0.78506   0.80536   0.76731   1.000
    O28     O    0.88177   0.96904   0.77003   1.000
    O29     O    0.81118   0.85051   0.82119   1.000
    O30     O    0.71489   0.19390   0.26718   1.000
    O31     O    0.76964   0.14623   0.17456   1.000
    O32     O    0.68841   0.14846   0.32105   1.000
    O33     O    0.63770   0.10640   0.12291   1.000
    O34     O    0.61840   0.02942   0.26945   1.000
    O35     O    0.60690   0.14655   0.17631   1.000
    O36     O    0.11838   0.02942   0.26945   1.000
    O37     O    0.18840   0.14846   0.32105   1.000
    O38     O    0.10689   0.14655   0.17631   1.000
    O39     O    0.21488   0.19390   0.26718   1.000
    O40     O    0.26964   0.14623   0.17456   1.000
    O41     O    0.13769   0.10640   0.12291   1.000
    O42     O    0.03440   0.69573   0.26708   1.000
    O43     O    0.35589   0.35105   0.67616   1.000
    O44     O    0.51862   0.35121   0.67440   1.000
    O45     O    0.36708   0.46884   0.76925   1.000
    O46     O    0.46393   0.30337   0.76734   1.000
    O47     O    0.38687   0.39074   0.62228   1.000
    O48     O    0.43694   0.34907   0.82092   1.000
    O49     O    0.31118   0.85051   0.82119   1.000
    O50     O    0.23021   0.85300   0.67468   1.000
    O51     O    0.39298   0.85236   0.67654   1.000
    O52     O    0.28505   0.80536   0.76731   1.000
    O53     O    0.38177   0.96904   0.77003   1.000
    O54     O    0.36231   0.89211   0.62283   1.000
    O55     O    0.88688   0.39074   0.62228   1.000
    O56     O    0.63157   0.53081   0.26913   1.000
    O57     O    0.14210   0.64839   0.17611   1.000
    O58     O    0.06131   0.65052   0.32088   1.000
    O59     O    0.11185   0.60881   0.12221   1.000
    O60     O    0.13157   0.53081   0.26913   1.000
    O61     O    0.97939   0.64808   0.17422   1.000
    O62     O    0.01862   0.35121   0.67440   1.000
    O63     O    0.47939   0.64808   0.17422   1.000
    O64     O    0.93694   0.34907   0.82092   1.000
    O65     O    0.85589   0.35105   0.67616   1.000
    O66     O    0.56131   0.65052   0.32088   1.000
    O67     O    0.53448   0.69573   0.26708   1.000
    O68     O    0.86709   0.46884   0.76926   1.000
    O69     O    0.61186   0.60881   0.12221   1.000
    O70     O    0.96393   0.30337   0.76734   1.000
    O71     O    0.64211   0.64839   0.17611   1.000
loop_
    _geom_bond_atom_site_label_1
    _geom_bond_atom_site_label_2
    _geom_bond_distance
    _geom_bond_site_symmetry_2
    _ccdc_geom_bond_type
    Zr17   O24       3.07427      .   S
    N14    O24       7.10095      .   S
    Zr17   O25       2.36499      .   S
    N1     O25       5.58262  1_455   S
    Zr17   O26       2.57513      .   S
    N13    O26       5.80396      .   S
    Zr17   O27       2.47697      .   S
    N3     O27       5.68310      .   S
    Zr17   O28       2.62735      .   S
    N6     O28       5.88844  1_445   S
    Zr17   O29       3.03250      .   S
    N7     O29       7.02706  1_554   S
    Zr18   O30       2.48165      .   S
    N9     O30       5.68357      .   S
    Zr18   O31       2.57753      .   S
    N12    O31       5.80518      .   S
    Zr18   O32       3.03072      .   S
    N15    O32       7.02513      .   S
    Zr18   O33       3.06835      .   S
    N5     O33       7.09137  1_556   S
    Zr18   O34       2.62762      .   S
    N2     O34       5.90449  1_565   S
    Zr18   O35       2.37312      .   S
    N0     O35       5.59995      .   S
    Zr22   O36       2.62774      .   S
    N14    O36       5.90484  1_665   S
    Zr22   O37       3.03072      .   S
    N11    O37       7.02514      .   S
    Zr22   O38       2.37315      .   S
    N12    O38       5.60004  1_655   S
    Zr22   O39       2.48166      .   S
    N10    O39       5.68358      .   S
    Zr22   O40       2.57758      .   S
    N0     O40       5.80529      .   S
    Zr22   O41       3.06835      .   S
    N6     O41       7.09139  1_556   S
    N14    O42       5.66165  1_655   S
    Zr21   O42       2.47014      .   S
    Zr16   O43       2.37207      .   S
    N11    O43       5.59730      .   S
    Zr16   O44       2.56378      .   S
    N15    O44       5.78539      .   S
    Zr16   O45       2.61675      .   S
    N4     O45       5.87210      .   S
    Zr16   O46       2.48109      .   S
    N5     O46       5.68704      .   S
    Zr16   O47       3.07159      .   S
    N10    O47       7.09635      .   S
    Zr16   O48       3.03557      .   S
    N0     O48       7.03238  1_554   S
    Zr19   O49       3.03250      .   S
    N8     O49       7.02706  1_554   S
    Zr19   O50       2.57512      .   S
    N1     O50       5.80394      .   S
    Zr19   O51       2.36503      .   S
    N13    O51       5.58274      .   S
    Zr19   O52       2.47695      .   S
    N4     O52       5.68303      .   S
    Zr19   O53       2.62738      .   S
    N5     O53       5.88854  1_545   S
    Zr19   O54       3.07439      .   S
    N2     O54       7.10136      .   S
    N9     O55       7.09635      .   S
    Zr23   O55       3.07159      .   S
    N9     O56       5.88215      .   S
    Zr20   O56       2.62133      .   S
    Zr21   O57       2.37302      .   S
    N8     O57       5.60611      .   S
    Zr21   O58       3.03646      .   S
    N1     O58       7.03140      .   S
    Zr21   O59       3.07632      .   S
    N4     O59       7.10321  1_556   S
    Zr21   O60       2.62131      .   S
    N10    O60       5.88214      .   S
    Zr21   O61       2.56573  1_455   S
    N7     O61       5.78212      .   S
    N11    O62       5.78529      .   S
    Zr23   O62       2.56370  1_655   S
    N8     O63       5.78221      .   S
    Zr20   O63       2.56581      .   S
    N12    O64       7.03229  1_554   S
    Zr23   O64       3.03554      .   S
    N15    O65       5.59728      .   S
    Zr23   O65       2.37205      .   S
    N13    O66       7.03140      .   S
    Zr20   O66       3.03646      .   S
    N2     O67       5.66176      .   S
    Zr20   O67       2.46962      .   S
    N3     O68       5.87215      .   S
    Zr23   O68       2.61675      .   S
    N3     O69       7.10313  1_556   S
    Zr20   O69       3.07630      .   S
    Zr23   O70       2.48106      .   S
    N6     O70       5.68699  1_455   S
    N7     O71       5.60613      .   S
    Zr20   O71       2.37304      .   S
