# CIF file generated by openbabel 2.4.90, see http://openbabel.sf.net
data_I
_chemical_name_common ''
_cell_length_a 22.672
_cell_length_b 22.189
_cell_length_c 29.054
_cell_angle_alpha 90.096
_cell_angle_beta 90.041
_cell_angle_gamma 89.324
_space_group_name_H-M_alt 'P 1'
_space_group_name_Hall 'P 1'
loop_
    _symmetry_equiv_pos_as_xyz
    x,y,z
loop_
    _atom_site_label
    _atom_site_type_symbol
    _atom_site_fract_x
    _atom_site_fract_y
    _atom_site_fract_z
    _atom_site_occupancy
    N0      N    0.44492   0.23355   0.04611   1.000
    N1      N    0.05419   0.76627   0.54627   1.000
    N2      N    0.48091   0.87896   0.39684   1.000
    N3      N    0.73070   0.62205   0.89637   1.000
    N4      N    0.23070   0.62205   0.89636   1.000
    N5      N    0.51876   0.11966   0.89729   1.000
    N6      N    0.01876   0.11966   0.89729   1.000
    N7      N    0.80274   0.73485   0.04606   1.000
    N8      N    0.30273   0.73485   0.04606   1.000
    N9      N    0.76888   0.37800   0.39622   1.000
    N10     N    0.26887   0.37800   0.39622   1.000
    N11     N    0.19537   0.26478   0.54600   1.000
    N12     N    0.94492   0.23355   0.04611   1.000
    N13     N    0.55420   0.76627   0.54627   1.000
    N14     N    0.98088   0.87896   0.39684   1.000
    N15     N    0.69538   0.26478   0.54600   1.000
    Zr16    Zr   0.43195   0.39260   0.72198   1.000
    O17     O    0.34823   0.35848   0.68512   1.000
    O18     O    0.36398   0.46152   0.77857   1.000
    O19     O    0.42254   0.34841   0.82100   1.000
    O20     O    0.36354   0.34361   0.66720   1.000
    O21     O    0.45685   0.29816   0.75837   1.000
    O22     O    0.39184   0.37650   0.62131   1.000
    O23     O    0.51182   0.34557   0.66545   1.000
    O24     O    0.47100   0.30858   0.77631   1.000
    O25     O    0.45134   0.34972   0.82084   1.000
    O26     O    0.52542   0.35685   0.68335   1.000
    O27     O    0.37018   0.47616   0.75994   1.000
    O28     O    0.38190   0.40497   0.62324   1.000
    Zr29    Zr   0.81665   0.89412   0.72244   1.000
    O30     O    0.86733   0.90614   0.62396   1.000
    O31     O    0.87894   0.97636   0.76073   1.000
    O32     O    0.88556   0.84506   0.66752   1.000
    O33     O    0.73721   0.84733   0.66574   1.000
    O34     O    0.85729   0.87807   0.62171   1.000
    O35     O    0.79226   0.80009   0.75834   1.000
    O36     O    0.90041   0.85967   0.68557   1.000
    O37     O    0.88460   0.96172   0.77933   1.000
    O38     O    0.82557   0.84954   0.82133   1.000
    O39     O    0.77786   0.81063   0.77629   1.000
    O40     O    0.72323   0.85868   0.68362   1.000
    O41     O    0.79680   0.85148   0.82104   1.000
    Zr42    Zr   0.68350   0.10457   0.22230   1.000
    O43     O    0.63270   0.09230   0.12401   1.000
    O44     O    0.62135   0.02205   0.25983   1.000
    O45     O    0.61544   0.03679   0.27907   1.000
    O46     O    0.59950   0.13902   0.18522   1.000
    O47     O    0.67398   0.14916   0.32118   1.000
    O48     O    0.70770   0.19907   0.25819   1.000
    O49     O    0.64269   0.12049   0.12180   1.000
    O50     O    0.76263   0.15183   0.16563   1.000
    O51     O    0.61430   0.15407   0.16740   1.000
    O52     O    0.72208   0.18872   0.27617   1.000
    O53     O    0.77665   0.14063   0.18348   1.000
    O54     O    0.70284   0.14776   0.32093   1.000
    Zr55    Zr   0.31664   0.89412   0.72244   1.000
    O56     O    0.23721   0.84733   0.66574   1.000
    O57     O    0.35730   0.87807   0.62171   1.000
    O58     O    0.38555   0.84506   0.66752   1.000
    O59     O    0.29226   0.80009   0.75834   1.000
    O60     O    0.32556   0.84954   0.82133   1.000
    O61     O    0.40041   0.85967   0.68557   1.000
    O62     O    0.38460   0.96172   0.77934   1.000
    O63     O    0.29679   0.85148   0.82104   1.000
    O64     O    0.22322   0.85868   0.68362   1.000
    O65     O    0.27785   0.81063   0.77629   1.000
    O66     O    0.37894   0.97636   0.76073   1.000
    O67     O    0.36733   0.90614   0.62396   1.000
    Zr68    Zr   0.56615   0.60675   0.22186   1.000
    O69     O    0.62873   0.52351   0.25978   1.000
    O70     O    0.61702   0.59470   0.12320   1.000
    O71     O    0.47260   0.64266   0.18324   1.000
    O72     O    0.54691   0.64985   0.32079   1.000
    O73     O    0.52748   0.69062   0.27609   1.000
    O74     O    0.48617   0.65349   0.16521   1.000
    O75     O    0.60669   0.62291   0.12123   1.000
    O76     O    0.54147   0.70084   0.25807   1.000
    O77     O    0.63444   0.65574   0.16715   1.000
    O78     O    0.63442   0.53811   0.27848   1.000
    O79     O    0.57571   0.65119   0.32097   1.000
    O80     O    0.64978   0.64104   0.18508   1.000
    Zr81    Zr   0.06614   0.60675   0.22186   1.000
    O82     O    0.11702   0.59470   0.12320   1.000
    O83     O    0.12873   0.52351   0.25978   1.000
    O84     O    0.14977   0.64104   0.18508   1.000
    O85     O    0.07571   0.65119   0.32097   1.000
    O86     O    0.13441   0.53811   0.27848   1.000
    O87     O    0.13444   0.65574   0.16715   1.000
    O88     O    0.04146   0.70084   0.25807   1.000
    O89     O    0.10669   0.62291   0.12123   1.000
    O90     O    0.98617   0.65349   0.16521   1.000
    O91     O    0.04691   0.64985   0.32079   1.000
    O92     O    0.02734   0.69062   0.27609   1.000
    O93     O    0.97261   0.64266   0.18324   1.000
    Zr94    Zr   0.18349   0.10457   0.22230   1.000
    O95     O    0.11429   0.15408   0.16740   1.000
    O96     O    0.20769   0.19907   0.25819   1.000
    O97     O    0.26263   0.15183   0.16563   1.000
    O98     O    0.14269   0.12049   0.12180   1.000
    O99     O    0.20283   0.14776   0.32093   1.000
    O100    O    0.22207   0.18872   0.27617   1.000
    O101    O    0.27664   0.14063   0.18349   1.000
    O102    O    0.17398   0.14916   0.32118   1.000
    O103    O    0.09950   0.13902   0.18522   1.000
    O104    O    0.11543   0.03679   0.27908   1.000
    O105    O    0.12134   0.02205   0.25983   1.000
    O106    O    0.13269   0.09230   0.12401   1.000
    Zr107   Zr   0.93195   0.39260   0.72198   1.000
    O108    O    0.86399   0.46152   0.77857   1.000
    O109    O    0.92254   0.34842   0.82100   1.000
    O110    O    0.84824   0.35848   0.68512   1.000
    O111    O    0.02542   0.35685   0.68335   1.000
    O112    O    0.95134   0.34973   0.82084   1.000
    O113    O    0.97100   0.30858   0.77631   1.000
    O114    O    0.01182   0.34557   0.66545   1.000
    O115    O    0.89184   0.37650   0.62131   1.000
    O116    O    0.95686   0.29816   0.75837   1.000
    O117    O    0.86354   0.34361   0.66720   1.000
    O118    O    0.88191   0.40497   0.62324   1.000
    O119    O    0.87018   0.47616   0.75994   1.000
loop_
    _geom_bond_atom_site_label_1
    _geom_bond_atom_site_label_2
    _geom_bond_distance
    _geom_bond_site_symmetry_2
    _ccdc_geom_bond_type
    Zr16   O17       2.31320      .   S
    N11    O17       5.72662      .   S
    Zr16   O18       2.71214      .   S
    N4     O18       5.76634      .   S
    Zr16   O19       3.04932      .   S
    N0     O19       7.03925  1_554   S
    Zr16   O20       2.48017      .   S
    N11    O20       5.48761      .   S
    Zr16   O21       2.40954      .   S
    N5     O21       5.81927      .   S
    Zr16   O22       3.08390      .   S
    N10    O22       7.10723      .   S
    Zr16   O23       2.64948      .   S
    N15    O23       5.69222      .   S
    Zr16   O24       2.59235      .   S
    N5     O24       5.57095      .   S
    Zr16   O25       3.05694      .   S
    N0     O25       7.04070  1_554   S
    Zr16   O26       2.51813      .   S
    N15    O26       5.89532      .   S
    Zr16   O27       2.55910      .   S
    N4     O27       5.99352      .   S
    Zr16   O28       3.09574      .   S
    N10    O28       7.10128      .   S
    Zr29   O30       3.09721      .   S
    N14    O30       7.10683      .   S
    Zr29   O31       2.57181      .   S
    N6     O31       6.00657  1_445   S
    Zr29   O32       2.47580      .   S
    N1     O32       5.47045  1_455   S
    Zr29   O33       2.65876      .   S
    N13    O33       5.71278      .   S
    Zr29   O34       3.08757      .   S
    N14    O34       7.11081      .   S
    Zr29   O35       2.40466      .   S
    N3     O35       5.81620      .   S
    Zr29   O36       2.30311      .   S
    N1     O36       5.71429  1_455   S
    Zr29   O37       2.72003      .   S
    N6     O37       5.78579  1_445   S
    Zr29   O38       3.04623      .   S
    N7     O38       7.03330  1_554   S
    Zr29   O39       2.58922      .   S
    N3     O39       5.56621      .   S
    Zr29   O40       2.53167      .   S
    N13    O40       5.91202      .   S
    Zr29   O41       3.05386      .   S
    N7     O41       7.03600  1_554   S
    Zr42   O43       3.09133      .   S
    N5     O43       7.09802  1_556   S
    Zr42   O44       2.56837      .   S
    N2     O44       6.03020  1_565   S
    Zr42   O45       2.72586      .   S
    N2     O45       5.79488  1_565   S
    Zr42   O46       2.31015      .   S
    N0     O46       5.73169      .   S
    Zr42   O47       3.04378      .   S
    N15    O47       7.03220      .   S
    Zr42   O48       2.40927      .   S
    N9     O48       5.81706      .   S
    Zr42   O49       3.08193      .   S
    N5     O49       7.10059  1_556   S
    Zr42   O50       2.66157      .   S
    N12    O50       5.71356      .   S
    Zr42   O51       2.48486      .   S
    N0     O51       5.48767      .   S
    Zr42   O52       2.59379      .   S
    N9     O52       5.56623      .   S
    Zr42   O53       2.53346      .   S
    N12    O53       5.91359      .   S
    Zr42   O54       3.05291      .   S
    N15    O54       7.03330      .   S
    Zr55   O56       2.65875      .   S
    N1     O56       5.71275      .   S
    Zr55   O57       3.08769      .   S
    N2     O57       7.11123      .   S
    Zr55   O58       2.47584      .   S
    N13    O58       5.47057      .   S
    Zr55   O59       2.40464      .   S
    N4     O59       5.81613      .   S
    Zr55   O60       3.04623      .   S
    N8     O60       7.03329  1_554   S
    Zr55   O61       2.30316      .   S
    N13    O61       5.71440      .   S
    Zr55   O62       2.72007      .   S
    N5     O62       5.78589  1_545   S
    Zr55   O63       3.05386      .   S
    N8     O63       7.03599  1_554   S
    Zr55   O64       2.53166      .   S
    N1     O64       5.91199      .   S
    Zr55   O65       2.58920      .   S
    N4     O65       5.56614      .   S
    Zr55   O66       2.57184      .   S
    N5     O66       6.00667  1_545   S
    Zr55   O67       3.09734      .   S
    N2     O67       7.10722      .   S
    Zr68   O69       2.56533      .   S
    N9     O69       6.00162      .   S
    Zr68   O70       3.10049      .   S
    N3     O70       7.10779  1_556   S
    Zr68   O71       2.52028      .   S
    N8     O71       5.89239      .   S
    Zr68   O72       3.05764      .   S
    N13    O72       7.04047      .   S
    Zr68   O73       2.58224      .   S
    N2     O73       5.54421      .   S
    Zr68   O74       2.65132      .   S
    N8     O74       5.68877      .   S
    Zr68   O75       3.08828      .   S
    N3     O75       7.11419  1_556   S
    Zr68   O76       2.39672      .   S
    N2     O76       5.79543      .   S
    Zr68   O77       2.48093      .   S
    N7     O77       5.49680      .   S
    Zr68   O78       2.71483      .   S
    N9     O78       5.77827      .   S
    Zr68   O79       3.05040      .   S
    N13    O79       7.03753      .   S
    Zr68   O80       2.31424      .   S
    N7     O80       5.73504      .   S
    Zr81   O82       3.10051      .   S
    N4     O82       7.10787  1_556   S
    Zr81   O83       2.56531      .   S
    N10    O83       6.00161      .   S
    Zr81   O84       2.31421      .   S
    N8     O84       5.73502      .   S
    Zr81   O85       3.05040      .   S
    N1     O85       7.03753      .   S
    Zr81   O86       2.71481      .   S
    N10    O86       5.77826      .   S
    Zr81   O87       2.48091      .   S
    N8     O87       5.49678      .   S
    Zr81   O88       2.39678      .   S
    N14    O88       5.79565  1_655   S
    Zr81   O89       3.08830      .   S
    N4     O89       7.11427  1_556   S
    Zr81   O90       2.65127  1_455   S
    N7     O90       5.68866      .   S
    Zr81   O91       3.05764      .   S
    N1     O91       7.04047      .   S
    Zr81   O92       2.58336      .   S
    N14    O92       5.54384  1_655   S
    Zr81   O93       2.52018  1_455   S
    N7     O93       5.89232      .   S
    Zr94   O95       2.48489      .   S
    N12    O95       5.48776  1_655   S
    Zr94   O96       2.40928      .   S
    N10    O96       5.81707      .   S
    Zr94   O97       2.66161      .   S
    N0     O97       5.71368      .   S
    Zr94   O98       3.08194      .   S
    N6     O98       7.10060  1_556   S
    Zr94   O99       3.05291      .   S
    N11    O99       7.03331      .   S
    Zr94   O100      2.59379      .   S
    N10    O100      5.56624      .   S
    Zr94   O101      2.53352      .   S
    N0     O101      5.91369      .   S
    Zr94   O102      3.04379      .   S
    N11    O102      7.03221      .   S
    Zr94   O103      2.31018      .   S
    N12    O103      5.73179  1_655   S
    Zr94   O104      2.72599      .   S
    N14    O104      5.79524  1_665   S
    Zr94   O105      2.56848      .   S
    N14    O105      6.03056  1_665   S
    Zr94   O106      3.09134      .   S
    N6     O106      7.09804  1_556   S
    Zr107  O108      2.71214      .   S
    N3     O108      5.76638      .   S
    Zr107  O109      3.04930      .   S
    N12    O109      7.03915  1_554   S
    Zr107  O110      2.31317      .   S
    N15    O110      5.72660      .   S
    Zr107  O111      2.51803  1_655   S
    N11    O111      5.89524      .   S
    Zr107  O112      3.05690      .   S
    N12    O112      7.04062  1_554   S
    Zr107  O113      2.59231      .   S
    N6     O113      5.57091  1_455   S
    Zr107  O114      2.64942  1_655   S
    N11    O114      5.69210      .   S
    Zr107  O115      3.08389      .   S
    N9     O115      7.10724      .   S
    Zr107  O116      2.40953      .   S
    N6     O116      5.81921  1_455   S
    Zr107  O117      2.48015      .   S
    N15    O117      5.48760      .   S
    Zr107  O118      3.09574      .   S
    N9     O118      7.10129      .   S
    Zr107  O119      2.55910      .   S
    N3     O119      5.99358      .   S
