# CIF file generated by openbabel 2.4.90, see http://openbabel.sf.net
data_I
_chemical_name_common ''
_cell_length_a 14.308
_cell_length_b 15.844
_cell_length_c 15.845
_cell_angle_alpha 78.291
_cell_angle_beta 63.23
_cell_angle_gamma 63.229
_space_group_name_H-M_alt 'P 1'
_space_group_name_Hall 'P 1'
loop_
    _symmetry_equiv_pos_as_xyz
    x,y,z
loop_
    _atom_site_label
    _atom_site_type_symbol
    _atom_site_fract_x
    _atom_site_fract_y
    _atom_site_fract_z
    _atom_site_occupancy
    Ca0     Ca   0.96536   0.99960   0.56946   1.000
    Ca1     Ca   0.03510   0.42979   0.99945   1.000
    Ca2     Ca   0.46538   0.56957   0.99950   1.000
    Cd3     Cd   0.23660   0.02678   0.49994   1.000
    Cd4     Cd   0.76299   0.97355   0.49977   1.000
    Cd5     Cd   0.26293   0.49993   0.97345   1.000
    Cd6     Cd   0.73658   0.50007   0.02672   1.000
    Ca7     Ca   0.53510   0.99954   0.42965   1.000
