# CIF file generated by openbabel 2.4.90, see http://openbabel.sf.net
data_I
_chemical_name_common ''
_cell_length_a 14.308
_cell_length_b 15.844
_cell_length_c 15.845
_cell_angle_alpha 78.291
_cell_angle_beta 63.23
_cell_angle_gamma 63.229
_space_group_name_H-M_alt 'P 1'
_space_group_name_Hall 'P 1'
loop_
    _symmetry_equiv_pos_as_xyz
    x,y,z
loop_
    _atom_site_label
    _atom_site_type_symbol
    _atom_site_fract_x
    _atom_site_fract_y
    _atom_site_fract_z
    _atom_site_occupancy
    N0      N    0.90237   0.26014   0.29452   1.000
    N1      N    0.80289   0.29432   0.73972   1.000
    N2      N    0.83721   0.70499   0.25998   1.000
    N3      N    0.40275   0.29461   0.26004   1.000
    N4      N    0.95708   0.70555   0.73970   1.000
    N5      N    0.30286   0.73981   0.29424   1.000
    N6      N    0.45712   0.73977   0.70543   1.000
    N7      N    0.33725   0.26006   0.70490   1.000
    Zr8     Zr   0.46538   0.56957   0.99950   1.000
    O9      O    0.43974   0.48883   0.07496   1.000
    O10     O    0.45260   0.61382   0.91388   1.000
    O11     O    0.57172   0.48873   0.92432   1.000
    O12     O    0.43364   0.61383   0.08538   1.000
    Zr13    Zr   0.23660   0.02678   0.49994   1.000
    O14     O    0.29437   0.10253   0.42955   1.000
    O15     O    0.29562   0.94150   0.56577   1.000
    O16     O    0.10317   0.10245   0.57028   1.000
    O17     O    0.26290   0.94146   0.43405   1.000
    Zr18    Zr   0.03510   0.42979   0.99945   1.000
    O19     O    0.13341   0.38567   0.91372   1.000
    O20     O    0.98526   0.51062   0.07489   1.000
    O21     O    0.00392   0.51078   0.92423   1.000
    O22     O    0.98083   0.38574   0.08542   1.000
    Zr23    Zr   0.53510   0.99954   0.42965   1.000
    O24     O    0.48524   0.07499   0.51051   1.000
    O25     O    0.48093   0.08551   0.38562   1.000
    O26     O    0.50395   0.92430   0.51064   1.000
    O27     O    0.63340   0.91381   0.38554   1.000
    Zr28    Zr   0.26293   0.49993   0.97345   1.000
    O29     O    0.27580   0.42950   0.89747   1.000
    O30     O    0.30265   0.43415   0.05866   1.000
    O31     O    0.13816   0.56569   0.05857   1.000
    O32     O    0.32607   0.57029   0.89760   1.000
    Zr33    Zr   0.73658   0.50007   0.02672   1.000
    O34     O    0.76289   0.43417   0.94139   1.000
    O35     O    0.60314   0.57040   0.10239   1.000
    O36     O    0.79558   0.56592   0.94145   1.000
    O37     O    0.79426   0.42967   0.10247   1.000
    Zr38    Zr   0.76299   0.97355   0.49977   1.000
    O39     O    0.63822   0.05867   0.56554   1.000
    O40     O    0.77584   0.89757   0.42936   1.000
    O41     O    0.82610   0.89770   0.57017   1.000
    O42     O    0.80259   0.05876   0.43401   1.000
    Zr43    Zr   0.96536   0.99960   0.56946   1.000
    O44     O    0.93364   0.08547   0.61373   1.000
    O45     O    0.07171   0.92442   0.48863   1.000
    O46     O    0.95258   0.91399   0.61372   1.000
    O47     O    0.93963   0.07505   0.48873   1.000
loop_
    _geom_bond_atom_site_label_1
    _geom_bond_atom_site_label_2
    _geom_bond_distance
    _geom_bond_site_symmetry_2
    _ccdc_geom_bond_type
    Zr8    O9        1.61467  1_556   S
    N3     O9        3.84136      .   S
    Zr8    O10       1.44476      .   S
    N6     O10       3.48491      .   S
    Zr8    O11       1.61417      .   S
    N1     O11       3.84019      .   S
    Zr8    O12       1.44689  1_556   S
    N5     O12       3.48943      .   S
    Zr13   O14       1.69932      .   S
    N3     O14       4.00774      .   S
    Zr13   O15       1.67933  1_545   S
    N6     O15       3.94132      .   S
    Zr13   O16       1.69949      .   S
    N1     O16       4.00801  1_655   S
    Zr13   O17       1.67920  1_545   S
    N5     O17       3.94048      .   S
    Zr18   O19       1.44598      .   S
    N7     O19       3.48783      .   S
    Zr18   O20       1.61508  1_456   S
    N2     O20       3.84249      .   S
    Zr18   O21       1.61511      .   S
    N4     O21       3.84198  1_655   S
    Zr18   O22       1.44743  1_456   S
    N0     O22       3.49046      .   S
    Zr23   O24       1.61539  1_565   S
    N7     O24       3.84273      .   S
    Zr23   O25       1.44683  1_565   S
    N3     O25       3.48960      .   S
    Zr23   O26       1.61521      .   S
    N6     O26       3.84222      .   S
    Zr23   O27       1.44582      .   S
    N2     O27       3.48748      .   S
    Zr28   O29       1.69964      .   S
    N7     O29       4.00897      .   S
    Zr28   O30       1.67885  1_556   S
    N3     O30       3.93975      .   S
    Zr28   O31       1.67851  1_556   S
    N2     O31       3.93901  1_655   S
    Zr28   O32       1.69967      .   S
    N6     O32       4.00897      .   S
    Zr33   O34       1.67938  1_554   S
    N1     O34       3.94102      .   S
    Zr33   O35       1.69943      .   S
    N5     O35       4.00782      .   S
    Zr33   O36       1.67941  1_554   S
    N4     O36       3.94123      .   S
    Zr33   O37       1.69862      .   S
    N0     O37       4.00597      .   S
    Zr38   O39       1.67858  1_565   S
    N7     O39       3.93922      .   S
    Zr38   O40       1.69961      .   S
    N2     O40       4.00887      .   S
    Zr38   O41       1.69979      .   S
    N4     O41       4.00915      .   S
    Zr38   O42       1.67809  1_565   S
    N0     O42       3.93721      .   S
    Zr43   O44       1.44683  1_565   S
    N1     O44       3.48930      .   S
    Zr43   O45       1.61411  1_655   S
    N5     O45       3.84006      .   S
    Zr43   O46       1.44473      .   S
    N4     O46       3.48482      .   S
    Zr43   O47       1.61491  1_565   S
    N0     O47       3.84192      .   S
