# CIF file generated by openbabel 2.4.90, see http://openbabel.sf.net
data_I
_chemical_name_common ''
_cell_length_a 7.721
_cell_length_b 10.168
_cell_length_c 13.463
_cell_angle_alpha 68.148
_cell_angle_beta 84.677
_cell_angle_gamma 76.446
_space_group_name_H-M_alt 'P 1'
_space_group_name_Hall 'P 1'
loop_
    _symmetry_equiv_pos_as_xyz
    x,y,z
loop_
    _atom_site_label
    _atom_site_type_symbol
    _atom_site_fract_x
    _atom_site_fract_y
    _atom_site_fract_z
    _atom_site_occupancy
    Cd0     Cd   0.64542   0.84064   0.95326   1.000
    Cd1     Cd   0.99998   0.49997   0.00004   1.000
    C2      C    0.32193   0.86188   0.11576   1.000
    C3      C    0.34471   0.34614   0.15758   1.000
    C4      C    0.17009   0.39658   0.81788   1.000
    C5      C    0.67804   0.13803   0.88433   1.000
    Cd6     Cd   0.35457   0.15924   0.04682   1.000
    C7      C    0.65529   0.65379   0.84245   1.000
    C8      C    0.82989   0.60331   0.18218   1.000
    O9      O    0.28034   0.95696   0.15973   1.000
    O10     O    0.36918   0.89412   0.01735   1.000
    O11     O    0.28887   0.38896   0.05856   1.000
    O12     O    0.40819   0.21510   0.20840   1.000
    O13     O    0.08807   0.50662   0.84227   1.000
    O14     O    0.22157   0.26781   0.88302   1.000
    O15     O    0.71962   0.04294   0.84036   1.000
    O16     O    0.63078   0.10579   0.98272   1.000
    O17     O    0.71111   0.61097   0.94148   1.000
    O18     O    0.59183   0.78482   0.79162   1.000
    O19     O    0.91192   0.49328   0.15778   1.000
    O20     O    0.77845   0.73209   0.11704   1.000
    Og21    Og   0.31906   0.81095   0.13841   1.000
    Og22    Og   0.33999   0.38404   0.17325   1.000
    Og23    Og   0.18072   0.40714   0.77886   1.000
    Og24    Og   0.68087   0.18896   0.86167   1.000
    Og25    Og   0.65997   0.61589   0.82679   1.000
    Og26    Og   0.81926   0.59275   0.22120   1.000
loop_
    _geom_bond_atom_site_label_1
    _geom_bond_atom_site_label_2
    _geom_bond_distance
    _geom_bond_site_symmetry_2
    _ccdc_geom_bond_type
    Cd1    O11       2.31390  1_655   S
    Cd1    O19       2.15015      .   S
    Cd1    O13       2.15055  1_654   S
    Cd1    O17       2.31380  1_554   S
    O10    C2        1.28010      .   S
    O10    Cd0       2.24796  1_554   S
    Cd6    O9        2.22103  1_545   S
    Cd6    O12       2.53447      .   S
    Cd6    O14       2.28318  1_554   S
    Cd6    O16       2.24779  1_554   S
    O11    C3        1.31880      .   S
    C2     O9        1.27811      .   S
    O20    C8        1.26785      .   S
    O20    Cd0       2.28307  1_554   S
    C3     O12       1.24945      .   S
    O19    C8        1.28981      .   S
    O18    C7        1.24942      .   S
    O18    Cd0       2.53490      .   S
    C4     O13       1.28983      .   S
    C4     O14       1.26783      .   S
    O15    C5        1.27811      .   S
    O15    Cd0       2.22105  1_545   S
    C7     O17       1.31882      .   S
    C5     O16       1.28009      .   S
    O11    Cd6       2.33298      .   S
    O17    Cd0       2.33274      .   S
    C2     Og21      0.49815      .   S
    C3     Og22      0.49677      .   S
    C4     Og23      0.49838      .   S
    C5     Og24      0.49816      .   S
    C7     Og25      0.49678      .   S
    C8     Og26      0.49838      .   S
