# CIF file generated by openbabel 2.4.90, see http://openbabel.sf.net
data_I
_chemical_name_common ''
_cell_length_a 7.721
_cell_length_b 10.168
_cell_length_c 13.463
_cell_angle_alpha 68.148
_cell_angle_beta 84.677
_cell_angle_gamma 76.446
_space_group_name_H-M_alt 'P 1'
_space_group_name_Hall 'P 1'
loop_
    _symmetry_equiv_pos_as_xyz
    x,y,z
loop_
    _atom_site_label
    _atom_site_type_symbol
    _atom_site_fract_x
    _atom_site_fract_y
    _atom_site_fract_z
    _atom_site_occupancy
    Zr0     Zr   0.35457   0.15924   0.04682   1.000
    Zr1     Zr   0.64542   0.84064   0.95326   1.000
    Zr2     Zr   0.99998   0.49997   0.00004   1.000
    Zr3     Zr   0.32193   0.86188   0.11576   1.000
    Zr4     Zr   0.34471   0.34614   0.15758   1.000
    Zr5     Zr   0.17009   0.39658   0.81788   1.000
    Zr6     Zr   0.67804   0.13803   0.88433   1.000
    Zr7     Zr   0.65529   0.65379   0.84245   1.000
    Zr8     Zr   0.82989   0.60331   0.18218   1.000
    Zr9     Zr   0.28034   0.95696   0.15973   1.000
    Zr10    Zr   0.36918   0.89412   0.01735   1.000
    Zr11    Zr   0.28887   0.38896   0.05856   1.000
    Zr12    Zr   0.40819   0.21510   0.20840   1.000
    Zr13    Zr   0.08807   0.50662   0.84227   1.000
    Zr14    Zr   0.22157   0.26781   0.88302   1.000
    Zr15    Zr   0.71962   0.04294   0.84036   1.000
    Zr16    Zr   0.63078   0.10579   0.98272   1.000
    Zr17    Zr   0.71111   0.61097   0.94148   1.000
    Zr18    Zr   0.59183   0.78482   0.79162   1.000
    Zr19    Zr   0.91192   0.49328   0.15778   1.000
    Zr20    Zr   0.77845   0.73209   0.11704   1.000
    O21     O    0.14442   0.44446   0.02930   1.000
    O22     O    0.95595   0.49662   0.07891   1.000
    O23     O    0.04402   0.50329   0.92116   1.000
    O24     O    0.85554   0.55547   0.97076   1.000
    O25     O    0.34555   0.87800   0.06656   1.000
    O26     O    0.50730   0.86738   0.98531   1.000
    O27     O    0.31745   0.05810   0.10327   1.000
    O28     O    0.38138   0.18717   0.12761   1.000
    O29     O    0.28807   0.21352   0.96492   1.000
    O30     O    0.49267   0.13251   0.01477   1.000
    O31     O    0.31679   0.36755   0.10807   1.000
    O32     O    0.30113   0.90942   0.13774   1.000
    O33     O    0.80417   0.66770   0.14961   1.000
    O34     O    0.71193   0.78637   0.03515   1.000
    O35     O    0.37645   0.28062   0.18299   1.000
    O36     O    0.87091   0.54829   0.16998   1.000
    O37     O    0.62356   0.71930   0.81704   1.000
    O38     O    0.61862   0.81273   0.87244   1.000
    O39     O    0.12908   0.45160   0.83008   1.000
    O40     O    0.19583   0.33219   0.85045   1.000
    O41     O    0.69883   0.09048   0.86234   1.000
    O42     O    0.68252   0.94179   0.89681   1.000
    O43     O    0.68320   0.63238   0.89197   1.000
    O44     O    0.65441   0.12191   0.93352   1.000
    O45     O    0.32172   0.27410   0.05269   1.000
    O46     O    0.67826   0.72581   0.94737   1.000
    N47     N    0.26956   0.50997   0.42889   1.000
    O48     O    0.22780   0.46120   0.59412   1.000
    O49     O    0.30360   0.45648   0.30499   1.000
    O50     O    0.29359   0.64773   0.28931   1.000
    N51     N    0.73038   0.48993   0.57117   1.000
    O52     O    0.70634   0.35217   0.71075   1.000
    O53     O    0.77216   0.53870   0.40594   1.000
    O54     O    0.69635   0.54343   0.69506   1.000
loop_
    _geom_bond_atom_site_label_1
    _geom_bond_atom_site_label_2
    _geom_bond_distance
    _geom_bond_site_symmetry_2
    _ccdc_geom_bond_type
    Zr2    O21       1.15695  1_655   S
    Zr11   O21       1.15695      .   S
    Zr2    O22       1.07507      .   S
    Zr19   O22       1.07507      .   S
    Zr2    O23       1.07527  1_654   S
    Zr13   O23       1.07527      .   S
    Zr2    O24       1.15690  1_554   S
    Zr17   O24       1.15690      .   S
    Zr10   O25       0.64005      .   S
    Zr3    O25       0.64005      .   S
    Zr10   O26       1.12398  1_554   S
    Zr1    O26       1.12398      .   S
    Zr0    O27       1.11051      .   S
    Zr9    O27       1.11051  1_565   S
    Zr0    O28       1.26724      .   S
    Zr12   O28       1.26724      .   S
    Zr0    O29       1.14159  1_554   S
    Zr14   O29       1.14159      .   S
    Zr0    O30       1.12390      .   S
    Zr16   O30       1.12390  1_556   S
    Zr11   O31       0.65940      .   S
    Zr4    O31       0.65940      .   S
    Zr3    O32       0.63905      .   S
    Zr9    O32       0.63905      .   S
    Zr20   O33       0.63393      .   S
    Zr8    O33       0.63393      .   S
    Zr20   O34       1.14153      .   S
    Zr1    O34       1.14153  1_556   S
    Zr4    O35       0.62473      .   S
    Zr12   O35       0.62473      .   S
    Zr19   O36       0.64491      .   S
    Zr8    O36       0.64491      .   S
    Zr18   O37       0.62471      .   S
    Zr7    O37       0.62471      .   S
    Zr18   O38       1.26745      .   S
    Zr1    O38       1.26745      .   S
    Zr5    O39       0.64491      .   S
    Zr13   O39       0.64491      .   S
    Zr5    O40       0.63391      .   S
    Zr14   O40       0.63391      .   S
    Zr15   O41       0.63905      .   S
    Zr6    O41       0.63905      .   S
    Zr15   O42       1.11052  1_545   S
    Zr1    O42       1.11052      .   S
    Zr7    O43       0.65941      .   S
    Zr17   O43       0.65941      .   S
    Zr6    O44       0.64005      .   S
    Zr16   O44       0.64005      .   S
    Zr11   O45       1.16649      .   S
    Zr0    O45       1.16649      .   S
    Zr17   O46       1.16637      .   S
    Zr1    O46       1.16637      .   S
    N47    O48       2.10209      .   S
    Zr5    O48       2.84955      .   S
    N47    O49       1.91698      .   S
    Zr4    O49       2.58292      .   S
    N47    O50       1.90406      .   S
    Zr3    O50       2.56705      .   S
    N51    O52       1.90410      .   S
    Zr6    O52       2.56712      .   S
    N51    O53       2.10211      .   S
    Zr8    O53       2.84957      .   S
    N51    O54       1.91693      .   S
    Zr7    O54       2.58284      .   S
