# CIF file generated by openbabel 2.4.90, see http://openbabel.sf.net
data_I
_chemical_name_common ''
_cell_length_a 20.935
_cell_length_b 20.946
_cell_length_c 16.318
_cell_angle_alpha 80.949
_cell_angle_beta 81.04
_cell_angle_gamma 49.407
_space_group_name_H-M_alt 'P 1'
_space_group_name_Hall 'P 1'
loop_
    _symmetry_equiv_pos_as_xyz
    x,y,z
loop_
    _atom_site_label
    _atom_site_type_symbol
    _atom_site_fract_x
    _atom_site_fract_y
    _atom_site_fract_z
    _atom_site_occupancy
    H0      H    0.34772   0.36928   0.99630   1.000
    H1      H    0.34772   0.86928   0.99630   1.000
    H2      H    0.84772   0.36928   0.99632   1.000
    H3      H    0.84772   0.86927   0.99630   1.000
    H4      H    0.19727   0.41418   0.28021   1.000
    H5      H    0.19727   0.91417   0.28021   1.000
    H6      H    0.69727   0.41417   0.28021   1.000
    H7      H    0.69727   0.91416   0.28021   1.000
    H8      H    0.04118   0.00462   0.02655   1.000
    H9      H    0.04118   0.50461   0.02655   1.000
    H10     H    0.54118   0.00462   0.02655   1.000
    H11     H    0.54118   0.50461   0.02655   1.000
    H12     H    0.13025   0.15248   0.50375   1.000
    H13     H    0.13026   0.65247   0.50375   1.000
    H14     H    0.63025   0.15248   0.50375   1.000
    H15     H    0.63025   0.65247   0.50375   1.000
    H16     H    0.08727   0.30292   0.21971   1.000
    H17     H    0.08727   0.80291   0.21971   1.000
    H18     H    0.58726   0.30292   0.21971   1.000
    H19     H    0.58727   0.80291   0.21971   1.000
    H20     H    0.49538   0.45879   0.47300   1.000
    H21     H    0.49539   0.95878   0.47300   1.000
    H22     H    0.99539   0.45879   0.47339   1.000
    H23     H    0.99539   0.95878   0.47339   1.000
    H24     H    0.15224   0.13073   0.00372   1.000
    H25     H    0.15225   0.63072   0.00372   1.000
    H26     H    0.65224   0.13072   0.00372   1.000
    H27     H    0.65224   0.63071   0.00372   1.000
    H28     H    0.30270   0.08583   0.71982   1.000
    H29     H    0.30270   0.58582   0.71982   1.000
    H30     H    0.80269   0.08582   0.71982   1.000
    H31     H    0.80269   0.58581   0.71982   1.000
    H32     H    0.45878   0.49538   0.97348   1.000
    H33     H    0.45878   0.99537   0.97348   1.000
    H34     H    0.95878   0.49538   0.97348   1.000
    H35     H    0.95878   0.99537   0.97348   1.000
    H36     H    0.36971   0.34753   0.49628   1.000
    H37     H    0.36972   0.84752   0.49628   1.000
    H38     H    0.86971   0.34753   0.49628   1.000
    H39     H    0.86971   0.84752   0.49628   1.000
    H40     H    0.41270   0.19709   0.78032   1.000
    H41     H    0.41270   0.69708   0.78032   1.000
    H42     H    0.91269   0.19709   0.78032   1.000
    H43     H    0.91270   0.69708   0.78032   1.000
    H44     H    0.00458   0.04122   0.52664   1.000
    H45     H    0.00458   0.54120   0.52664   1.000
    H46     H    0.50458   0.04122   0.52664   1.000
    H47     H    0.50458   0.54121   0.52664   1.000
    C48     C    0.23700   0.42536   0.93309   1.000
    C49     C    0.23700   0.92535   0.93309   1.000
    C50     C    0.73699   0.42535   0.93309   1.000
    C51     C    0.73699   0.92535   0.93309   1.000
    C52     C    0.28105   0.39948   0.00000   1.000
    C53     C    0.28105   0.89947   0.00000   1.000
    C54     C    0.78104   0.39948   0.00000   1.000
    C55     C    0.78105   0.89947   0.00000   1.000
    C56     C    0.23812   0.41300   0.08180   1.000
    C57     C    0.23812   0.91299   0.08180   1.000
    C58     C    0.73811   0.41300   0.08180   1.000
    C59     C    0.73812   0.91299   0.08180   1.000
    C60     C    0.19671   0.41925   0.21299   1.000
    C61     C    0.19671   0.91924   0.21299   1.000
    C62     C    0.69671   0.41925   0.21000   1.000
    C63     C    0.69671   0.91924   0.21299   1.000
    C64     C    0.15205   0.44906   0.09020   1.000
    C65     C    0.15205   0.94905   0.09020   1.000
    C66     C    0.65204   0.44906   0.09020   1.000
    C67     C    0.65204   0.94905   0.09020   1.000
    C68     C    0.10760   0.47534   0.01989   1.000
    C69     C    0.10760   0.97533   0.01989   1.000
    C70     C    0.60759   0.47534   0.01989   1.000
    C71     C    0.60759   0.97533   0.01989   1.000
    C72     C    0.91824   0.69651   0.71308   1.000
    C73     C    0.44880   0.15194   0.59020   1.000
    C74     C    0.44880   0.65193   0.59026   1.000
    C75     C    0.94880   0.15193   0.59027   1.000
    C76     C    0.14974   0.46452   0.94126   1.000
    C77     C    0.14974   0.96450   0.94126   1.000
    C78     C    0.64974   0.46451   0.94126   1.000
    C79     C    0.64974   0.96450   0.94126   1.000
    C80     C    0.07404   0.26303   0.56695   1.000
    C81     C    0.07404   0.76301   0.56695   1.000
    C82     C    0.57403   0.26303   0.56695   1.000
    C83     C    0.57404   0.76301   0.56695   1.000
    C84     C    0.10017   0.21910   0.49607   1.000
    C85     C    0.10017   0.71909   0.49607   1.000
    C86     C    0.60016   0.21910   0.49607   1.000
    C87     C    0.60016   0.71909   0.49607   1.000
    C88     C    0.08710   0.26207   0.41818   1.000
    C89     C    0.08710   0.76206   0.41818   1.000
    C90     C    0.58709   0.26207   0.41810   1.000
    C91     C    0.58710   0.76206   0.41818   1.000
    C92     C    0.08173   0.30348   0.28690   1.000
    C93     C    0.08173   0.80347   0.28690   1.000
    C94     C    0.58172   0.30348   0.28696   1.000
    C95     C    0.58173   0.80347   0.28696   1.000
    C96     C    0.05117   0.34807   0.40977   1.000
    C97     C    0.05117   0.84806   0.40977   1.000
    C98     C    0.55116   0.34807   0.40977   1.000
    C99     C    0.55117   0.84806   0.40977   1.000
    C100    C    0.02455   0.39243   0.48007   1.000
    C101    C    0.02455   0.89242   0.48007   1.000
    C102    C    0.52455   0.39243   0.48000   1.000
    C103    C    0.52455   0.89242   0.48000   1.000
    C104    C    0.03498   0.35023   0.55874   1.000
    C105    C    0.03499   0.85022   0.55874   1.000
    C106    C    0.53499   0.35023   0.55874   1.000
    C107    C    0.53499   0.85022   0.55874   1.000
    C108    C    0.26297   0.07465   0.06694   1.000
    C109    C    0.26297   0.57464   0.06694   1.000
    C110    C    0.76296   0.07465   0.06694   1.000
    C111    C    0.76297   0.57464   0.06694   1.000
    C112    C    0.21891   0.10053   0.99606   1.000
    C113    C    0.21892   0.60052   0.99606   1.000
    C114    C    0.71891   0.10053   0.99606   1.000
    C115    C    0.71891   0.60052   0.99606   1.000
    C116    C    0.26184   0.08701   0.91823   1.000
    C117    C    0.26185   0.58700   0.91823   1.000
    C118    C    0.76184   0.08700   0.91823   1.000
    C119    C    0.76184   0.58699   0.91823   1.000
    C120    C    0.30325   0.08076   0.78704   1.000
    C121    C    0.30325   0.58075   0.78704   1.000
    C122    C    0.80325   0.08075   0.78704   1.000
    C123    C    0.80325   0.58074   0.78704   1.000
    C124    C    0.34792   0.05095   0.90983   1.000
    C125    C    0.34792   0.55094   0.90983   1.000
    C126    C    0.84791   0.05094   0.90983   1.000
    C127    C    0.84792   0.55093   0.90983   1.000
    C128    C    0.39237   0.02466   0.98014   1.000
    C129    C    0.39237   0.52465   0.98014   1.000
    C130    C    0.89236   0.02466   0.98014   1.000
    C131    C    0.89237   0.52465   0.98014   1.000
    C132    C    0.35022   0.03549   0.05877   1.000
    C133    C    0.35022   0.53548   0.05877   1.000
    C134    C    0.85022   0.03549   0.05877   1.000
    C135    C    0.85022   0.53548   0.05877   1.000
    C136    C    0.42592   0.23698   0.43308   1.000
    C137    C    0.42593   0.73697   0.43308   1.000
    C138    C    0.92592   0.23698   0.43308   1.000
    C139    C    0.92592   0.73697   0.43308   1.000
    C140    C    0.39980   0.28090   0.50397   1.000
    C141    C    0.39980   0.78089   0.50397   1.000
    C142    C    0.89980   0.28090   0.50397   1.000
    C143    C    0.89980   0.78089   0.50397   1.000
    C144    C    0.41287   0.23794   0.58185   1.000
    C145    C    0.41287   0.73793   0.58185   1.000
    C146    C    0.91287   0.23794   0.58185   1.000
    C147    C    0.91287   0.73793   0.58185   1.000
    C148    C    0.41824   0.19652   0.71308   1.000
    C149    C    0.41824   0.69651   0.71308   1.000
    C150    C    0.91824   0.19652   0.71308   1.000
    C151    C    0.94880   0.65192   0.59027   1.000
    C152    C    0.47542   0.10758   0.51996   1.000
    C153    C    0.47542   0.60757   0.51996   1.000
    C154    C    0.97542   0.10758   0.51996   1.000
    C155    C    0.97542   0.60757   0.51996   1.000
    C156    C    0.46498   0.14978   0.44129   1.000
    C157    C    0.46498   0.64977   0.44129   1.000
    C158    C    0.96498   0.14978   0.44129   1.000
    C159    C    0.96498   0.64977   0.44129   1.000
    N160    N    0.26480   0.39512   0.16125   1.000
    N161    N    0.26480   0.89511   0.16125   1.000
    N162    N    0.76480   0.39511   0.16125   1.000
    N163    N    0.76480   0.89510   0.16125   1.000
    N164    N    0.12756   0.45167   0.17454   1.000
    N165    N    0.12756   0.95166   0.17454   1.000
    N166    N    0.62756   0.45167   0.17454   1.000
    N167    N    0.62756   0.95166   0.17454   1.000
    N168    N    0.10546   0.23544   0.33870   1.000
    N169    N    0.10546   0.73543   0.33870   1.000
    N170    N    0.60545   0.23544   0.33870   1.000
    N171    N    0.60545   0.73543   0.33870   1.000
    N172    N    0.04914   0.37256   0.32540   1.000
    N173    N    0.04914   0.87255   0.32540   1.000
    N174    N    0.54913   0.37256   0.32542   1.000
    N175    N    0.54914   0.87255   0.32542   1.000
    N176    N    0.23516   0.10489   0.83878   1.000
    N177    N    0.23516   0.60488   0.83878   1.000
    N178    N    0.73516   0.10489   0.83878   1.000
    N179    N    0.73516   0.60488   0.83878   1.000
    N180    N    0.37240   0.04833   0.82549   1.000
    N181    N    0.37240   0.54833   0.82549   1.000
    N182    N    0.87240   0.04833   0.82549   1.000
    N183    N    0.87240   0.54832   0.82549   1.000
    N184    N    0.39451   0.26457   0.66132   1.000
    N185    N    0.39452   0.76456   0.66132   1.000
    N186    N    0.89451   0.26457   0.66132   1.000
    N187    N    0.89451   0.76456   0.66132   1.000
    N188    N    0.45083   0.12745   0.67462   1.000
    N189    N    0.45083   0.62744   0.67460   1.000
    N190    N    0.95082   0.12745   0.67462   1.000
    N191    N    0.95083   0.62744   0.67462   1.000
loop_
    _geom_bond_atom_site_label_1
    _geom_bond_atom_site_label_2
    _geom_bond_distance
    _geom_bond_site_symmetry_2
    _ccdc_geom_bond_type
    C55    C59       1.44350      .   S
    C55    C51       1.34660  1_554   S
    C55    H3        1.09030  1_554   S
    C52    C56       1.44350      .   S
    C52    C48       1.34661  1_554   S
    C52    H0        1.09029  1_554   S
    C53    C57       1.44350      .   S
    C53    C49       1.34661  1_554   S
    C53    H1        1.09028  1_554   S
    C54    C58       1.44350      .   S
    C54    C50       1.34660  1_554   S
    C54    H2        1.09031  1_554   S
    H24    C112      1.08878  1_554   S
    H25    C113      1.08877  1_554   S
    H26    C114      1.08879  1_554   S
    H27    C115      1.08879  1_554   S
    C71    H10       1.08868  1_565   S
    C71    C67       1.39731      .   S
    C71    C79       1.39811  1_554   S
    C70    H11       1.08873      .   S
    C70    C66       1.39731      .   S
    C70    C78       1.39811  1_554   S
    C69    H8        1.08868  1_565   S
    C69    C65       1.39730      .   S
    C69    C77       1.39811  1_554   S
    C68    H9        1.08874      .   S
    C68    C64       1.39730      .   S
    C68    C76       1.39811  1_554   S
    C132   C108      1.42689      .   S
    C132   C128      1.39811  1_554   S
    C135   C111      1.42689      .   S
    C135   C131      1.39810  1_554   S
    C134   C110      1.42690      .   S
    C134   C130      1.39811  1_554   S
    C133   C109      1.42688      .   S
    C133   C129      1.39811  1_554   S
    C110   C114      1.40235  1_554   S
    C109   C113      1.40235  1_554   S
    C108   C112      1.40235  1_554   S
    C111   C115      1.40235  1_554   S
    C56    C64       1.42150      .   S
    C56    N160      1.39056      .   S
    C57    C65       1.42151      .   S
    C57    N161      1.39056      .   S
    C58    C66       1.42149      .   S
    C58    N162      1.39056      .   S
    C59    C67       1.42149      .   S
    C59    N163      1.39056      .   S
    C64    N164      1.38827      .   S
    C65    N165      1.38827      .   S
    C67    N167      1.38827      .   S
    C66    N166      1.38827      .   S
    N161   C61       1.34981      .   S
    N160   C60       1.34981      .   S
    N162   C62       1.32510      .   S
    N163   C63       1.34982      .   S
    N164   C60       1.34909      .   S
    N167   C63       1.34907      .   S
    N166   C62       1.32272      .   S
    N165   C61       1.34910      .   S
    C62    H6        1.13502      .   S
    C61    H5        1.08642      .   S
    C60    H4        1.08642      .   S
    C63    H7        1.08642      .   S
    H19    C95       1.08651      .   S
    H18    C94       1.08651      .   S
    H16    C92       1.08553      .   S
    H17    C93       1.08553      .   S
    C93    N173      1.34956      .   S
    C93    N169      1.35020      .   S
    C92    N172      1.34956      .   S
    C92    N168      1.35020      .   S
    C94    N174      1.34919      .   S
    C94    N170      1.34970      .   S
    C95    N175      1.34919      .   S
    C95    N171      1.34970      .   S
    N172   C96       1.38852      .   S
    N173   C97       1.38852      .   S
    N174   C98       1.38822      .   S
    N175   C99       1.38822      .   S
    N171   C91       1.39081      .   S
    N168   C88       1.39081      .   S
    N170   C90       1.38956      .   S
    N169   C89       1.39081      .   S
    C96    C88       1.42148      .   S
    C96    C100      1.39720      .   S
    C97    C89       1.42147      .   S
    C97    C101      1.39720      .   S
    C98    C90       1.42152      .   S
    C98    C102      1.39621      .   S
    C99    C91       1.42147      .   S
    C99    C103      1.39621      .   S
    C90    C86       1.38973      .   S
    C89    C85       1.38863      .   S
    C91    C87       1.38863      .   S
    C88    C84       1.38863      .   S
    C138   C158      1.42708      .   S
    C138   C142      1.40236      .   S
    C139   C159      1.42707      .   S
    C139   C143      1.40236      .   S
    C137   C157      1.42707      .   S
    C137   C141      1.40235      .   S
    C136   C156      1.42707      .   S
    C136   C140      1.40235      .   S
    C156   C152      1.39857      .   S
    C157   C153      1.39857      .   S
    C158   C154      1.39856      .   S
    C159   C155      1.39857      .   S
    H21    C103      1.08872      .   S
    H20    C102      1.08872      .   S
    H23    C101      1.08880  1_655   S
    H22    C100      1.08880  1_655   S
    C102   C106      1.39954      .   S
    C103   C107      1.39954      .   S
    C101   C105      1.39857      .   S
    C100   C104      1.39857      .   S
    C85    H13       1.08883      .   S
    C85    C81       1.40221      .   S
    C84    H12       1.08883      .   S
    C84    C80       1.40221      .   S
    C86    H14       1.08883      .   S
    C86    C82       1.40222      .   S
    C87    H15       1.08883      .   S
    C87    C83       1.40222      .   S
    H36    C140      1.08881      .   S
    H39    C143      1.08882      .   S
    H38    C142      1.08882      .   S
    H37    C141      1.08882      .   S
    C143   C147      1.38850      .   S
    C142   C146      1.38849      .   S
    C141   C145      1.38849      .   S
    C140   C144      1.38849      .   S
    C153   H47       1.08879      .   S
    C153   C74       1.39720      .   S
    C152   H46       1.08879      .   S
    C152   C73       1.39635      .   S
    C154   H44       1.08883  1_655   S
    C154   C75       1.39733      .   S
    C155   H45       1.08880  1_655   S
    C155   C151      1.39734      .   S
    C104   C80       1.42707      .   S
    C107   C83       1.42707      .   S
    C106   C82       1.42705      .   S
    C105   C81       1.42707      .   S
    C146   C75       1.42149      .   S
    C146   N186      1.39066      .   S
    C144   C73       1.42149      .   S
    C144   N184      1.39065      .   S
    C145   C74       1.42148      .   S
    C145   N185      1.39065      .   S
    C147   C151      1.42147      .   S
    C147   N187      1.39067      .   S
    C73    N188      1.38929      .   S
    C74    N189      1.38806      .   S
    C151   N191      1.38821      .   S
    C75    N190      1.38821      .   S
    N187   C72       1.34988      .   S
    N186   C150      1.34988      .   S
    N185   C149      1.34988      .   S
    N184   C148      1.34986      .   S
    N189   C149      1.34936      .   S
    N188   C148      1.34920      .   S
    N190   C150      1.34920      .   S
    N191   C72       1.34919      .   S
    C150   H42       1.08634      .   S
    C148   H40       1.08634      .   S
    C149   H41       1.08634      .   S
    C72    H43       1.08634      .   S
    H31    C123      1.08642      .   S
    H30    C122      1.08642      .   S
    H28    C120      1.08642      .   S
    H29    C121      1.08642      .   S
    C123   N183      1.34910      .   S
    C123   N179      1.34981      .   S
    C122   N182      1.34910      .   S
    C122   N178      1.34981      .   S
    C121   N181      1.34909      .   S
    C121   N177      1.34979      .   S
    C120   N180      1.34909      .   S
    C120   N176      1.34981      .   S
    N180   C124      1.38827      .   S
    N181   C125      1.38827      .   S
    N182   C126      1.38827      .   S
    N183   C127      1.38827      .   S
    N176   C116      1.39057      .   S
    N177   C117      1.39056      .   S
    N178   C118      1.39056      .   S
    N179   C119      1.39056      .   S
    C127   C119      1.42149      .   S
    C127   C131      1.39732      .   S
    C126   C118      1.42149      .   S
    C126   C130      1.39732      .   S
    C125   C117      1.42149      .   S
    C125   C129      1.39731      .   S
    C124   C116      1.42149      .   S
    C124   C128      1.39731      .   S
    C118   C114      1.38828      .   S
    C117   C113      1.38828      .   S
    C116   C112      1.38828      .   S
    C119   C115      1.38827      .   S
    C51    C79       1.42689      .   S
    C50    C78       1.42688      .   S
    C49    C77       1.42689      .   S
    C48    C76       1.42689      .   S
    H33    C128      1.08867  1_565   S
    H32    C129      1.08875      .   S
    H34    C131      1.08873      .   S
    H35    C130      1.08866  1_565   S
