# CIF file generated by openbabel 2.4.90, see http://openbabel.sf.net
data_I
_chemical_name_common ''
_cell_length_a 20.935
_cell_length_b 20.946
_cell_length_c 16.318
_cell_angle_alpha 80.949
_cell_angle_beta 81.04
_cell_angle_gamma 49.407
_space_group_name_H-M_alt 'P 1'
_space_group_name_Hall 'P 1'
loop_
    _symmetry_equiv_pos_as_xyz
    x,y,z
loop_
    _atom_site_label
    _atom_site_type_symbol
    _atom_site_fract_x
    _atom_site_fract_y
    _atom_site_fract_z
    _atom_site_occupancy
    Cd0     Cd   0.35686   0.89636   0.21026   1.000
    Cd1     Cd   0.85685   0.39637   0.21026   1.000
    Cd2     Cd   0.85686   0.89636   0.21026   1.000
    Cd3     Cd   0.10400   0.14367   0.28961   1.000
    Cd4     Cd   0.10400   0.64366   0.28961   1.000
    Cd5     Cd   0.60400   0.14366   0.28961   1.000
    Cd6     Cd   0.60400   0.64365   0.28961   1.000
    Cd7     Cd   0.14310   0.10364   0.78978   1.000
    Cd8     Cd   0.14310   0.60363   0.78978   1.000
    Cd9     Cd   0.64310   0.10364   0.78978   1.000
    Cd10    Cd   0.64310   0.60363   0.78978   1.000
    Cd11    Cd   0.39596   0.35635   0.71042   1.000
    Cd12    Cd   0.39597   0.85634   0.71042   1.000
    Cd13    Cd   0.89597   0.35634   0.71042   1.000
    Cd14    Cd   0.89597   0.85633   0.71042   1.000
    Cd15    Cd   0.00813   0.49228   0.25003   1.000
    Cd16    Cd   0.00813   0.99227   0.25003   1.000
    Cd17    Cd   0.50813   0.49228   0.25004   1.000
    Cd18    Cd   0.50813   0.99227   0.25003   1.000
    Cd19    Cd   0.49183   0.00772   0.75000   1.000
    Cd20    Cd   0.49184   0.50771   0.70000   1.000
    Cd21    Cd   0.99183   0.00772   0.75000   1.000
    Cd22    Cd   0.99183   0.50771   0.75000   1.000
    Cd23    Cd   0.35686   0.39637   0.21026   1.000
    C24     C    0.28705   0.40729   0.85153   1.000
    C25     C    0.28705   0.90728   0.85153   1.000
    C26     C    0.78704   0.40729   0.85153   1.000
    C27     C    0.78704   0.90728   0.85153   1.000
    C28     C    0.09718   0.49438   0.86869   1.000
    C29     C    0.09718   0.99437   0.86869   1.000
    C30     C    0.59718   0.49438   0.86869   1.000
    C31     C    0.59718   0.99436   0.86869   1.000
    C32     C    0.09199   0.21284   0.64850   1.000
    C33     C    0.09199   0.71283   0.64850   1.000
    C34     C    0.59198   0.21284   0.64850   1.000
    C35     C    0.59198   0.71283   0.64855   1.000
    O36     O    0.06501   0.06650   0.82960   1.000
    O37     O    0.06501   0.56649   0.82960   1.000
    O38     O    0.56500   0.06650   0.82961   1.000
    O39     O    0.56501   0.56649   0.82961   1.000
    O40     O    0.08033   0.44931   0.85360   1.000
    C41     C    0.00498   0.40264   0.63128   1.000
    C42     C    0.00499   0.90263   0.63128   1.000
    C43     C    0.50499   0.40264   0.63128   1.000
    C44     C    0.50499   0.90263   0.63128   1.000
    C45     C    0.21292   0.09272   0.14850   1.000
    C46     C    0.21292   0.59271   0.14850   1.000
    C47     C    0.71291   0.09272   0.14850   1.000
    C48     C    0.71292   0.59271   0.14850   1.000
    C49     C    0.40278   0.00563   0.13134   1.000
    C50     C    0.40278   0.50562   0.13134   1.000
    C51     C    0.90278   0.00563   0.13134   1.000
    C52     C    0.90278   0.50562   0.13134   1.000
    C53     C    0.40797   0.28717   0.35149   1.000
    C54     C    0.40798   0.78716   0.35149   1.000
    C55     C    0.90797   0.28717   0.35149   1.000
    C56     C    0.90797   0.78716   0.35149   1.000
    C57     C    0.49498   0.09736   0.36875   1.000
    C58     C    0.49498   0.59735   0.36875   1.000
    C59     C    0.99498   0.09736   0.36875   1.000
    C60     C    0.99498   0.59735   0.36875   1.000
    O61     O    0.36607   0.34539   0.84990   1.000
    O62     O    0.36607   0.84538   0.84990   1.000
    O63     O    0.86607   0.34539   0.84990   1.000
    O64     O    0.86607   0.84538   0.84990   1.000
    O65     O    0.25196   0.45327   0.78434   1.000
    O66     O    0.25196   0.95326   0.78434   1.000
    O67     O    0.75195   0.45327   0.78434   1.000
    O68     O    0.75195   0.95325   0.78434   1.000
    O69     O    0.08033   0.94930   0.85362   1.000
    O70     O    0.58033   0.44930   0.85361   1.000
    O71     O    0.58033   0.94929   0.85361   1.000
    O72     O    0.15349   0.13373   0.65024   1.000
    O73     O    0.15349   0.63372   0.65024   1.000
    O74     O    0.65348   0.13372   0.65024   1.000
    O75     O    0.65348   0.63372   0.65024   1.000
    O76     O    0.04639   0.24788   0.71573   1.000
    O77     O    0.04639   0.74787   0.71573   1.000
    O78     O    0.54639   0.24789   0.71573   1.000
    O79     O    0.54639   0.74788   0.71573   1.000
    O80     O    0.43300   0.43449   0.67031   1.000
    O81     O    0.43300   0.93448   0.67031   1.000
    O82     O    0.93300   0.43449   0.67031   1.000
    O83     O    0.93300   0.93448   0.67031   1.000
    O84     O    0.04991   0.41970   0.64637   1.000
    O85     O    0.04992   0.91969   0.64637   1.000
    O86     O    0.54992   0.41970   0.64637   1.000
    O87     O    0.54992   0.91969   0.64637   1.000
    O88     O    0.13389   0.15462   0.15013   1.000
    O89     O    0.13389   0.65461   0.15013   1.000
    O90     O    0.63389   0.15462   0.15013   1.000
    O91     O    0.63389   0.65461   0.15013   1.000
    O92     O    0.24801   0.04674   0.21569   1.000
    O93     O    0.24801   0.54673   0.21569   1.000
    O94     O    0.74801   0.04674   0.21569   1.000
    O95     O    0.74801   0.54673   0.21569   1.000
    O96     O    0.43495   0.43351   0.17042   1.000
    O97     O    0.43496   0.93350   0.17042   1.000
    O98     O    0.93495   0.43351   0.17042   1.000
    O99     O    0.93495   0.93349   0.17042   1.000
    O100    O    0.41964   0.05070   0.14641   1.000
    O101    O    0.41964   0.55069   0.14641   1.000
    O102    O    0.91964   0.05069   0.14641   1.000
    O103    O    0.91964   0.55068   0.14641   1.000
    O104    O    0.34647   0.36628   0.34979   1.000
    O105    O    0.34647   0.86627   0.34900   1.000
    O106    O    0.84646   0.36628   0.34979   1.000
    O107    O    0.84646   0.86627   0.34979   1.000
    O108    O    0.45357   0.25213   0.28430   1.000
    O109    O    0.45357   0.75212   0.28430   1.000
    O110    O    0.95357   0.25213   0.28430   1.000
    O111    O    0.95357   0.75212   0.28430   1.000
    O112    O    0.06696   0.06552   0.32972   1.000
    O113    O    0.06697   0.56551   0.32970   1.000
    O114    O    0.56697   0.06552   0.32970   1.000
    O115    O    0.56697   0.56551   0.32970   1.000
    O116    O    0.45004   0.08031   0.35366   1.000
    O117    O    0.45005   0.58030   0.35366   1.000
    O118    O    0.95005   0.08031   0.35366   1.000
    O119    O    0.95005   0.58029   0.35366   1.000
    Ts120   Ts   0.32617   0.89594   0.19392   1.000
    Ts121   Ts   0.82617   0.39595   0.19392   1.000
    Ts122   Ts   0.82617   0.89594   0.19392   1.000
    Ts123   Ts   0.10448   0.17426   0.30597   1.000
    Ts124   Ts   0.10448   0.67425   0.30597   1.000
    Ts125   Ts   0.60448   0.17426   0.30597   1.000
    Ts126   Ts   0.60448   0.67425   0.30597   1.000
    Ts127   Ts   0.17379   0.10406   0.80611   1.000
    Ts128   Ts   0.17379   0.60405   0.80611   1.000
    Ts129   Ts   0.67378   0.10406   0.80611   1.000
    Ts130   Ts   0.67379   0.60405   0.80611   1.000
    Ts131   Ts   0.39548   0.32575   0.69405   1.000
    Ts132   Ts   0.39548   0.82574   0.69405   1.000
    Ts133   Ts   0.89548   0.32575   0.69405   1.000
    Ts134   Ts   0.89548   0.82574   0.69405   1.000
    Ts135   Ts   0.04794   0.47874   0.22487   1.000
    Ts136   Ts   0.02180   0.45237   0.27515   1.000
    Ts137   Ts   0.04794   0.97874   0.22487   1.000
    Ts138   Ts   0.02180   0.95236   0.27515   1.000
    Ts139   Ts   0.54794   0.47874   0.22487   1.000
    Ts140   Ts   0.52180   0.45237   0.27517   1.000
    Ts141   Ts   0.54794   0.97873   0.22487   1.000
    Ts142   Ts   0.52180   0.95236   0.27516   1.000
    Ts143   Ts   0.45202   0.02126   0.77516   1.000
    Ts144   Ts   0.47816   0.04763   0.72487   1.000
    Ts145   Ts   0.47817   0.54762   0.69153   1.000
    Ts146   Ts   0.95202   0.02126   0.77516   1.000
    Ts147   Ts   0.97816   0.04763   0.72487   1.000
    Ts148   Ts   0.95202   0.52125   0.77516   1.000
    Ts149   Ts   0.97816   0.54762   0.72487   1.000
    Ts150   Ts   0.32617   0.39595   0.19392   1.000
    Og151   Og   0.27036   0.41331   0.87872   1.000
    Og152   Og   0.27036   0.91330   0.87872   1.000
    Og153   Og   0.77036   0.41331   0.87872   1.000
    Og154   Og   0.77036   0.91330   0.87872   1.000
    Og155   Og   0.11470   0.48442   0.89288   1.000
    Og156   Og   0.11470   0.98441   0.89288   1.000
    Og157   Og   0.61470   0.48442   0.89288   1.000
    Og158   Og   0.61470   0.98441   0.89288   1.000
    Og159   Og   0.08600   0.22957   0.62132   1.000
    Og160   Og   0.08601   0.72956   0.62132   1.000
    Og161   Og   0.58600   0.22957   0.62132   1.000
    Og162   Og   0.58600   0.72956   0.62135   1.000
    Og163   Og   0.01498   0.38517   0.60710   1.000
    Og164   Og   0.01499   0.88516   0.60710   1.000
    Og165   Og   0.51499   0.38517   0.60710   1.000
    Og166   Og   0.51499   0.88516   0.60710   1.000
    Og167   Og   0.22960   0.08670   0.12131   1.000
    Og168   Og   0.22960   0.58669   0.12131   1.000
    Og169   Og   0.72960   0.08670   0.12131   1.000
    Og170   Og   0.72960   0.58669   0.12131   1.000
    Og171   Og   0.38526   0.01558   0.10715   1.000
    Og172   Og   0.38526   0.51557   0.10715   1.000
    Og173   Og   0.88526   0.01558   0.10715   1.000
    Og174   Og   0.88526   0.51557   0.10715   1.000
    Og175   Og   0.41396   0.27044   0.37869   1.000
    Og176   Og   0.41396   0.77043   0.37869   1.000
    Og177   Og   0.91395   0.27044   0.37869   1.000
    Og178   Og   0.91396   0.77043   0.37869   1.000
    Og179   Og   0.48498   0.11484   0.39293   1.000
    Og180   Og   0.48498   0.61483   0.39293   1.000
    Og181   Og   0.98498   0.11483   0.39293   1.000
    Og182   Og   0.98498   0.61482   0.39293   1.000
loop_
    _geom_bond_atom_site_label_1
    _geom_bond_atom_site_label_2
    _geom_bond_distance
    _geom_bond_site_symmetry_2
    _ccdc_geom_bond_type
    C51    O102      1.26880      .   S
    C51    O99       1.28429  1_545   S
    C52    O103      1.26880      .   S
    C52    O98       1.28395      .   S
    C49    O100      1.26880      .   S
    C49    O97       1.28429  1_545   S
    C50    O101      1.26879      .   S
    C50    O96       1.28397      .   S
    O103   Cd15      2.27223  1_655   S
    O102   Cd16      2.27222  1_645   S
    O101   Cd17      2.27236      .   S
    O100   Cd18      2.27223  1_545   S
    C45    O88       1.27455      .   S
    C45    O92       1.29124      .   S
    C46    O89       1.27455      .   S
    C46    O93       1.29124      .   S
    C47    O90       1.27454      .   S
    C47    O94       1.29124      .   S
    C48    O91       1.27454      .   S
    C48    O95       1.29123      .   S
    O91    Cd6       2.28112      .   S
    O90    Cd5       2.28111      .   S
    O89    Cd4       2.28113      .   S
    O88    Cd3       2.28113      .   S
    O97    Cd0       2.20581      .   S
    O96    Cd23      2.20581      .   S
    O98    Cd1       2.20577      .   S
    O99    Cd2       2.20577      .   S
    Cd0    O92       2.40969  1_565   S
    Cd0    O105      2.26849      .   S
    Cd1    O95       2.40938      .   S
    Cd1    O106      2.28063      .   S
    Cd2    O94       2.40970  1_565   S
    Cd2    O107      2.28063      .   S
    Cd23   O93       2.40938      .   S
    Cd23   O104      2.28061      .   S
    Cd18   O116      2.27180  1_565   S
    Cd15   O119      2.27153  1_455   S
    Cd16   O118      2.27178  1_465   S
    Cd17   O117      2.27143      .   S
    O111   Cd4       2.40798  1_655   S
    O111   C56       1.29131      .   S
    O110   Cd3       2.40799  1_655   S
    O110   C55       1.29131      .   S
    O109   Cd6       2.40804      .   S
    O109   C54       1.29129      .   S
    O108   Cd5       2.40804      .   S
    O108   C53       1.29129      .   S
    Cd3    O112      2.20558      .   S
    Cd6    O115      2.20555      .   S
    Cd5    O114      2.20555      .   S
    Cd4    O113      2.20555      .   S
    O113   C60       1.28393  1_455   S
    O114   C57       1.28398      .   S
    O115   C58       1.28398      .   S
    O112   C59       1.28382  1_455   S
    O105   C54       1.27434      .   S
    O106   C55       1.27460      .   S
    O107   C56       1.27460      .   S
    O104   C53       1.27460      .   S
    O118   C59       1.26899      .   S
    O117   C58       1.26899      .   S
    O116   C57       1.26900      .   S
    O119   C60       1.26899      .   S
    C44    O87       1.26900      .   S
    C44    O81       1.28387      .   S
    C43    O86       1.26901      .   S
    C43    O80       1.28387      .   S
    C42    O85       1.26899      .   S
    C42    O83       1.28383  1_455   S
    C41    O84       1.26901      .   S
    C41    O82       1.28382  1_455   S
    O85    Cd21      2.27176  1_465   S
    O84    Cd22      2.27151  1_455   S
    O87    Cd19      2.27176  1_565   S
    O86    Cd20      1.70348      .   S
    C32    O72       1.27458      .   S
    C32    O76       1.29186      .   S
    C33    O73       1.27459      .   S
    C33    O77       1.29186      .   S
    C34    O74       1.27458      .   S
    C34    O78       1.29184      .   S
    C35    O75       1.27460      .   S
    C35    O79       1.29117      .   S
    O75    Cd10      2.28074      .   S
    O73    Cd8       2.28075      .   S
    O72    Cd7       2.28075      .   S
    O74    Cd9       2.28073      .   S
    O80    Cd11      2.20561      .   S
    O81    Cd12      2.20559      .   S
    O82    Cd13      2.20561      .   S
    O83    Cd14      2.20560      .   S
    Cd11   O78       2.40801      .   S
    Cd11   O61       2.28112      .   S
    Cd14   O77       2.40795  1_655   S
    Cd14   O64       2.28113      .   S
    Cd13   O76       2.40796  1_655   S
    Cd13   O63       2.28113      .   S
    Cd12   O79       2.40800      .   S
    Cd12   O62       2.28112      .   S
    Cd19   O71       2.27217  1_545   S
    Cd21   O69       2.27229  1_645   S
    Cd22   O40       2.27203  1_655   S
    O65    Cd8       2.40941      .   S
    O65    C24       1.29122      .   S
    O66    Cd7       2.40973  1_565   S
    O66    C25       1.29123      .   S
    O67    Cd10      2.40940      .   S
    O67    C26       1.29124      .   S
    O68    Cd9       2.40971  1_565   S
    O68    C27       1.29123      .   S
    Cd7    O36       2.20576      .   S
    Cd8    O37       2.20574      .   S
    Cd9    O38       2.20578      .   S
    Cd10   O39       2.20580      .   S
    O36    C29       1.28435  1_545   S
    O37    C28       1.28404      .   S
    O38    C31       1.28431  1_545   S
    O39    C30       1.28397      .   S
    O63    C26       1.27454      .   S
    O64    C27       1.27455      .   S
    O61    C24       1.27454      .   S
    O62    C25       1.27453      .   S
    O40    C28       1.26891      .   S
    O70    C30       1.26882      .   S
    O71    C31       1.26884      .   S
    O69    C29       1.26880      .   S
    O65    Cd11      2.51760      .   S
    O66    Cd12      2.51762      .   S
    O67    Cd13      2.51770      .   S
    O68    Cd14      2.51771      .   S
    O76    Cd7       2.51804      .   S
    O77    Cd8       2.51805      .   S
    O78    Cd9       2.51806      .   S
    O79    Cd10      2.51806      .   S
    O92    Cd3       2.51769      .   S
    O93    Cd4       2.51768      .   S
    O94    Cd5       2.51760      .   S
    O95    Cd6       2.51759      .   S
    O108   Cd23      2.51790      .   S
    O109   Cd0       2.51789      .   S
    O110   Cd1       2.51790      .   S
    O111   Cd2       2.51788      .   S
    Cd0    Ts120     0.73840      .   S
    Cd1    Ts121     0.73840      .   S
    Cd2    Ts122     0.73839      .   S
    Cd3    Ts123     0.73834      .   S
    Cd4    Ts124     0.73833      .   S
    Cd5    Ts125     0.73833      .   S
    Cd6    Ts126     0.73833      .   S
    Cd7    Ts127     0.73837      .   S
    Cd8    Ts128     0.73838      .   S
    Cd9    Ts129     0.73838      .   S
    Cd10   Ts130     0.73838      .   S
    Cd11   Ts131     0.73837      .   S
    Cd12   Ts132     0.73837      .   S
    Cd13   Ts133     0.73837      .   S
    Cd14   Ts134     0.73837      .   S
    Cd15   Ts135     0.75240      .   S
    Cd15   Ts136     0.75243      .   S
    Cd16   Ts137     0.75240      .   S
    Cd16   Ts138     0.75243      .   S
    Cd17   Ts139     0.75242      .   S
    Cd17   Ts140     0.75246      .   S
    Cd18   Ts141     0.75240      .   S
    Cd18   Ts142     0.75248      .   S
    Cd19   Ts143     0.75240      .   S
    Cd19   Ts144     0.75246      .   S
    Cd20   Ts145     0.68150      .   S
    Cd21   Ts146     0.75241      .   S
    Cd21   Ts147     0.75245      .   S
    Cd22   Ts148     0.75241      .   S
    Cd22   Ts149     0.75246      .   S
    Cd23   Ts150     0.73840      .   S
    C24    Og151     0.49671      .   S
    C25    Og152     0.49671      .   S
    C26    Og153     0.49670      .   S
    C27    Og154     0.49670      .   S
    C28    Og155     0.50348      .   S
    C29    Og156     0.50348      .   S
    C30    Og157     0.50348      .   S
    C31    Og158     0.50348      .   S
    C32    Og159     0.49651      .   S
    C33    Og160     0.49650      .   S
    C34    Og161     0.49651      .   S
    C35    Og162     0.49673      .   S
    C41    Og163     0.50342      .   S
    C42    Og164     0.50342      .   S
    C43    Og165     0.50343      .   S
    C44    Og166     0.50343      .   S
    C45    Og167     0.49670      .   S
    C46    Og168     0.49670      .   S
    C47    Og169     0.49670      .   S
    C48    Og170     0.49670      .   S
    C49    Og171     0.50348      .   S
    C50    Og172     0.50348      .   S
    C51    Og173     0.50348      .   S
    C52    Og174     0.50348      .   S
    C53    Og175     0.49669      .   S
    C54    Og176     0.49669      .   S
    C55    Og177     0.49669      .   S
    C56    Og178     0.49669      .   S
    C57    Og179     0.50342      .   S
    C58    Og180     0.50342      .   S
    C59    Og181     0.50342      .   S
    C60    Og182     0.50342      .   S
