# CIF file generated by openbabel 2.4.90, see http://openbabel.sf.net
data_I
_chemical_name_common ''
_cell_length_a 20.935
_cell_length_b 20.946
_cell_length_c 16.318
_cell_angle_alpha 80.949
_cell_angle_beta 81.04
_cell_angle_gamma 49.407
_space_group_name_H-M_alt 'P 1'
_space_group_name_Hall 'P 1'
loop_
    _symmetry_equiv_pos_as_xyz
    x,y,z
loop_
    _atom_site_label
    _atom_site_type_symbol
    _atom_site_fract_x
    _atom_site_fract_y
    _atom_site_fract_z
    _atom_site_occupancy
    C0      C    0.28705   0.40729   0.85153   1.000
    C1      C    0.28705   0.90728   0.85153   1.000
    C2      C    0.78704   0.40729   0.85153   1.000
    C3      C    0.78704   0.90728   0.85153   1.000
    C4      C    0.09718   0.49438   0.86869   1.000
    C5      C    0.09718   0.99437   0.86869   1.000
    C6      C    0.59718   0.49438   0.86869   1.000
    C7      C    0.59718   0.99436   0.86869   1.000
    C8      C    0.09199   0.21284   0.64850   1.000
    C9      C    0.09199   0.71283   0.64850   1.000
    C10     C    0.59198   0.21284   0.64850   1.000
    C11     C    0.59198   0.71283   0.64855   1.000
    C12     C    0.00498   0.40264   0.63128   1.000
    C13     C    0.00499   0.90263   0.63128   1.000
    C14     C    0.50499   0.40264   0.63128   1.000
    C15     C    0.50499   0.90263   0.63128   1.000
    C16     C    0.21292   0.09272   0.14850   1.000
    C17     C    0.21292   0.59271   0.14850   1.000
    C18     C    0.71291   0.09272   0.14850   1.000
    C19     C    0.71292   0.59271   0.14850   1.000
    C20     C    0.40278   0.00563   0.13134   1.000
    C21     C    0.40278   0.50562   0.13134   1.000
    C22     C    0.90278   0.00563   0.13134   1.000
    C23     C    0.90278   0.50562   0.13134   1.000
    C24     C    0.40797   0.28717   0.35149   1.000
    C25     C    0.40798   0.78716   0.35149   1.000
    C26     C    0.90797   0.28717   0.35149   1.000
    C27     C    0.90797   0.78716   0.35149   1.000
    C28     C    0.49498   0.09736   0.36875   1.000
    C29     C    0.49498   0.59735   0.36875   1.000
    C30     C    0.99498   0.09736   0.36875   1.000
    C31     C    0.99498   0.59735   0.36875   1.000
