# CIF file generated by openbabel 2.4.90, see http://openbabel.sf.net
data_I
_chemical_name_common ''
_cell_length_a 20.935
_cell_length_b 20.946
_cell_length_c 16.318
_cell_angle_alpha 80.949
_cell_angle_beta 81.04
_cell_angle_gamma 49.407
_space_group_name_H-M_alt 'P 1'
_space_group_name_Hall 'P 1'
loop_
    _symmetry_equiv_pos_as_xyz
    x,y,z
loop_
    _atom_site_label
    _atom_site_type_symbol
    _atom_site_fract_x
    _atom_site_fract_y
    _atom_site_fract_z
    _atom_site_occupancy
    Zr0     Zr   0.35686   0.39637   0.21026   1.000
    Zr1     Zr   0.35686   0.89636   0.21026   1.000
    Zr2     Zr   0.85685   0.39637   0.21026   1.000
    Zr3     Zr   0.85686   0.89636   0.21026   1.000
    Zr4     Zr   0.10400   0.14367   0.28961   1.000
    Zr5     Zr   0.10400   0.64366   0.28961   1.000
    Zr6     Zr   0.60400   0.14366   0.28961   1.000
    Zr7     Zr   0.60400   0.64365   0.28961   1.000
    Zr8     Zr   0.14310   0.10364   0.78978   1.000
    Zr9     Zr   0.14310   0.60363   0.78978   1.000
    Zr10    Zr   0.64310   0.10364   0.78978   1.000
    Zr11    Zr   0.64310   0.60363   0.78978   1.000
    Zr12    Zr   0.39596   0.35635   0.71042   1.000
    Zr13    Zr   0.39597   0.85634   0.71042   1.000
    Zr14    Zr   0.89597   0.35634   0.71042   1.000
    Zr15    Zr   0.89597   0.85633   0.71042   1.000
    Zr16    Zr   0.00813   0.49228   0.25003   1.000
    Zr17    Zr   0.00813   0.99227   0.25003   1.000
    Zr18    Zr   0.50813   0.49228   0.25004   1.000
    Zr19    Zr   0.50813   0.99227   0.25003   1.000
    Zr20    Zr   0.49183   0.00772   0.75000   1.000
    Zr21    Zr   0.49184   0.50771   0.70000   1.000
    Zr22    Zr   0.99183   0.00772   0.75000   1.000
    Zr23    Zr   0.99183   0.50771   0.75000   1.000
    Zr24    Zr   0.28705   0.40729   0.85153   1.000
    Zr25    Zr   0.28705   0.90728   0.85153   1.000
    Zr26    Zr   0.78704   0.40729   0.85153   1.000
    Zr27    Zr   0.78704   0.90728   0.85153   1.000
    Zr28    Zr   0.09718   0.49438   0.86869   1.000
    Zr29    Zr   0.09718   0.99437   0.86869   1.000
    Zr30    Zr   0.59718   0.49438   0.86869   1.000
    Zr31    Zr   0.59718   0.99436   0.86869   1.000
    Zr32    Zr   0.09199   0.21284   0.64850   1.000
    Zr33    Zr   0.09199   0.71283   0.64850   1.000
    Zr34    Zr   0.59198   0.21284   0.64850   1.000
    Zr35    Zr   0.59198   0.71283   0.64855   1.000
    Zr36    Zr   0.00498   0.40264   0.63128   1.000
    Zr37    Zr   0.00499   0.90263   0.63128   1.000
    Zr38    Zr   0.50499   0.40264   0.63128   1.000
    Zr39    Zr   0.50499   0.90263   0.63128   1.000
    Zr40    Zr   0.21292   0.09272   0.14850   1.000
    Zr41    Zr   0.21292   0.59271   0.14850   1.000
    Zr42    Zr   0.71291   0.09272   0.14850   1.000
    Zr43    Zr   0.71292   0.59271   0.14850   1.000
    Zr44    Zr   0.40278   0.00563   0.13134   1.000
    Zr45    Zr   0.40278   0.50562   0.13134   1.000
    Zr46    Zr   0.90278   0.00563   0.13134   1.000
    Zr47    Zr   0.90278   0.50562   0.13134   1.000
    Zr48    Zr   0.40797   0.28717   0.35149   1.000
    Zr49    Zr   0.40798   0.78716   0.35149   1.000
    Zr50    Zr   0.90797   0.28717   0.35149   1.000
    Zr51    Zr   0.90797   0.78716   0.35149   1.000
    Zr52    Zr   0.49498   0.09736   0.36875   1.000
    Zr53    Zr   0.49498   0.59735   0.36875   1.000
    Zr54    Zr   0.99498   0.09736   0.36875   1.000
    Zr55    Zr   0.99498   0.59735   0.36875   1.000
    Zr56    Zr   0.36607   0.34539   0.84990   1.000
    Zr57    Zr   0.36607   0.84538   0.84990   1.000
    Zr58    Zr   0.86607   0.34539   0.84990   1.000
    Zr59    Zr   0.86607   0.84538   0.84990   1.000
    Zr60    Zr   0.25196   0.45327   0.78434   1.000
    Zr61    Zr   0.25196   0.95326   0.78434   1.000
    Zr62    Zr   0.75195   0.45327   0.78434   1.000
    Zr63    Zr   0.75195   0.95325   0.78434   1.000
    Zr64    Zr   0.06501   0.06650   0.82960   1.000
    Zr65    Zr   0.06501   0.56649   0.82960   1.000
    Zr66    Zr   0.56500   0.06650   0.82961   1.000
    Zr67    Zr   0.56501   0.56649   0.82961   1.000
    Zr68    Zr   0.08033   0.44931   0.85360   1.000
    Zr69    Zr   0.08033   0.94930   0.85362   1.000
    Zr70    Zr   0.58033   0.44930   0.85361   1.000
    Zr71    Zr   0.58033   0.94929   0.85361   1.000
    Zr72    Zr   0.15349   0.13373   0.65024   1.000
    Zr73    Zr   0.15349   0.63372   0.65024   1.000
    Zr74    Zr   0.65348   0.13372   0.65024   1.000
    Zr75    Zr   0.65348   0.63372   0.65024   1.000
    Zr76    Zr   0.04639   0.24788   0.71573   1.000
    Zr77    Zr   0.04639   0.74787   0.71573   1.000
    Zr78    Zr   0.54639   0.24789   0.71573   1.000
    Zr79    Zr   0.54639   0.74788   0.71573   1.000
    Zr80    Zr   0.43300   0.43449   0.67031   1.000
    Zr81    Zr   0.43300   0.93448   0.67031   1.000
    Zr82    Zr   0.93300   0.43449   0.67031   1.000
    Zr83    Zr   0.93300   0.93448   0.67031   1.000
    Zr84    Zr   0.04991   0.41970   0.64637   1.000
    Zr85    Zr   0.04992   0.91969   0.64637   1.000
    Zr86    Zr   0.54992   0.41970   0.64637   1.000
    Zr87    Zr   0.54992   0.91969   0.64637   1.000
    Zr88    Zr   0.13389   0.15462   0.15013   1.000
    Zr89    Zr   0.13389   0.65461   0.15013   1.000
    Zr90    Zr   0.63389   0.15462   0.15013   1.000
    Zr91    Zr   0.63389   0.65461   0.15013   1.000
    Zr92    Zr   0.24801   0.04674   0.21569   1.000
    Zr93    Zr   0.24801   0.54673   0.21569   1.000
    Zr94    Zr   0.74801   0.04674   0.21569   1.000
    Zr95    Zr   0.74801   0.54673   0.21569   1.000
    Zr96    Zr   0.43495   0.43351   0.17042   1.000
    Zr97    Zr   0.43496   0.93350   0.17042   1.000
    Zr98    Zr   0.93495   0.43351   0.17042   1.000
    Zr99    Zr   0.93495   0.93349   0.17042   1.000
    Zr100   Zr   0.41964   0.05070   0.14641   1.000
    Zr101   Zr   0.41964   0.55069   0.14641   1.000
    Zr102   Zr   0.91964   0.05069   0.14641   1.000
    Zr103   Zr   0.91964   0.55068   0.14641   1.000
    Zr104   Zr   0.34647   0.36628   0.34979   1.000
    Zr105   Zr   0.34647   0.86627   0.34900   1.000
    Zr106   Zr   0.84646   0.36628   0.34979   1.000
    Zr107   Zr   0.84646   0.86627   0.34979   1.000
    Zr108   Zr   0.45357   0.25213   0.28430   1.000
    Zr109   Zr   0.45357   0.75212   0.28430   1.000
    Zr110   Zr   0.95357   0.25213   0.28430   1.000
    Zr111   Zr   0.95357   0.75212   0.28430   1.000
    Zr112   Zr   0.06696   0.06552   0.32972   1.000
    Zr113   Zr   0.06697   0.56551   0.32970   1.000
    Zr114   Zr   0.56697   0.06552   0.32970   1.000
    Zr115   Zr   0.56697   0.56551   0.32970   1.000
    Zr116   Zr   0.45004   0.08031   0.35366   1.000
    Zr117   Zr   0.45005   0.58030   0.35366   1.000
    Zr118   Zr   0.95005   0.08031   0.35366   1.000
    Zr119   Zr   0.95005   0.58029   0.35366   1.000
    O120    O    0.91121   0.02816   0.13888   1.000
    O121    O    0.91886   0.96956   0.15088   1.000
    O122    O    0.91121   0.52815   0.13888   1.000
    O123    O    0.91886   0.46956   0.15088   1.000
    O124    O    0.41121   0.02816   0.13888   1.000
    O125    O    0.41887   0.96956   0.15088   1.000
    O126    O    0.41121   0.52815   0.13888   1.000
    O127    O    0.41887   0.46956   0.15088   1.000
    O128    O    0.96389   0.52148   0.19822   1.000
    O129    O    0.96388   0.02148   0.19822   1.000
    O130    O    0.46388   0.52149   0.19822   1.000
    O131    O    0.46388   0.02149   0.19822   1.000
    O132    O    0.17341   0.12367   0.14932   1.000
    O133    O    0.23046   0.06973   0.18209   1.000
    O134    O    0.17341   0.62366   0.14932   1.000
    O135    O    0.23047   0.56972   0.18209   1.000
    O136    O    0.67340   0.12367   0.14932   1.000
    O137    O    0.73046   0.06973   0.18209   1.000
    O138    O    0.67340   0.62366   0.14932   1.000
    O139    O    0.73046   0.56972   0.18209   1.000
    O140    O    0.61895   0.64913   0.21987   1.000
    O141    O    0.61894   0.14914   0.21987   1.000
    O142    O    0.11895   0.64913   0.21987   1.000
    O143    O    0.11894   0.14914   0.21987   1.000
    O144    O    0.39591   0.91493   0.19034   1.000
    O145    O    0.39591   0.41494   0.19034   1.000
    O146    O    0.89590   0.41494   0.19034   1.000
    O147    O    0.89590   0.91493   0.19034   1.000
    O148    O    0.30244   0.97155   0.21297   1.000
    O149    O    0.35167   0.88132   0.27963   1.000
    O150    O    0.80243   0.47155   0.21297   1.000
    O151    O    0.85166   0.38132   0.28003   1.000
    O152    O    0.80243   0.97155   0.21297   1.000
    O153    O    0.85166   0.88131   0.28003   1.000
    O154    O    0.30244   0.47155   0.21297   1.000
    O155    O    0.35166   0.38133   0.28003   1.000
    O156    O    0.47909   0.03629   0.30184   1.000
    O157    O    0.97909   0.53629   0.30184   1.000
    O158    O    0.97909   0.03629   0.30184   1.000
    O159    O    0.47909   0.53629   0.30185   1.000
    O160    O    0.02879   0.69789   0.28695   1.000
    O161    O    0.93077   0.76964   0.31789   1.000
    O162    O    0.02878   0.19790   0.28695   1.000
    O163    O    0.93077   0.26965   0.31789   1.000
    O164    O    0.52879   0.69789   0.28695   1.000
    O165    O    0.43077   0.76964   0.31789   1.000
    O166    O    0.52878   0.19790   0.28695   1.000
    O167    O    0.43077   0.26965   0.31789   1.000
    O168    O    0.08548   0.10459   0.30966   1.000
    O169    O    0.58548   0.60458   0.30965   1.000
    O170    O    0.58548   0.10459   0.30965   1.000
    O171    O    0.08548   0.60459   0.30965   1.000
    O172    O    0.03097   0.58143   0.34923   1.000
    O173    O    0.53097   0.08144   0.34923   1.000
    O174    O    0.53097   0.58143   0.34923   1.000
    O175    O    0.03097   0.08144   0.34924   1.000
    O176    O    0.37722   0.82672   0.35025   1.000
    O177    O    0.87721   0.32672   0.35064   1.000
    O178    O    0.87722   0.82671   0.35064   1.000
    O179    O    0.37722   0.32673   0.35064   1.000
    O180    O    0.97251   0.08883   0.36120   1.000
    O181    O    0.47251   0.58883   0.36120   1.000
    O182    O    0.47251   0.08884   0.36120   1.000
    O183    O    0.97252   0.58882   0.36120   1.000
    O184    O    0.52745   0.91116   0.63882   1.000
    O185    O    0.46899   0.91856   0.65079   1.000
    O186    O    0.52745   0.41117   0.63882   1.000
    O187    O    0.46899   0.41857   0.65079   1.000
    O188    O    0.02745   0.91116   0.63882   1.000
    O189    O    0.96899   0.91856   0.65079   1.000
    O190    O    0.02745   0.41117   0.63882   1.000
    O191    O    0.96899   0.41857   0.65079   1.000
    O192    O    0.02087   0.96371   0.69819   1.000
    O193    O    0.02087   0.46371   0.69819   1.000
    O194    O    0.52088   0.96371   0.69819   1.000
    O195    O    0.52088   0.46371   0.67319   1.000
    O196    O    0.12274   0.17328   0.64937   1.000
    O197    O    0.06919   0.23036   0.68211   1.000
    O198    O    0.12274   0.67327   0.64937   1.000
    O199    O    0.06919   0.73035   0.68211   1.000
    O200    O    0.62273   0.17328   0.64937   1.000
    O201    O    0.56918   0.23036   0.68211   1.000
    O202    O    0.62273   0.67327   0.64939   1.000
    O203    O    0.56919   0.73035   0.68214   1.000
    O204    O    0.64829   0.61867   0.72001   1.000
    O205    O    0.14830   0.61867   0.72001   1.000
    O206    O    0.14829   0.11868   0.72001   1.000
    O207    O    0.64829   0.11868   0.72001   1.000
    O208    O    0.41448   0.39542   0.69037   1.000
    O209    O    0.41448   0.89541   0.69037   1.000
    O210    O    0.91448   0.39541   0.69037   1.000
    O211    O    0.91448   0.89541   0.69037   1.000
    O212    O    0.47118   0.30212   0.71307   1.000
    O213    O    0.38102   0.35087   0.78016   1.000
    O214    O    0.97118   0.80210   0.71307   1.000
    O215    O    0.88102   0.85086   0.78016   1.000
    O216    O    0.97118   0.30211   0.71307   1.000
    O217    O    0.88102   0.35087   0.78016   1.000
    O218    O    0.47118   0.80211   0.71307   1.000
    O219    O    0.38102   0.85086   0.78016   1.000
    O220    O    0.53608   0.97851   0.80180   1.000
    O221    O    0.03608   0.97851   0.80181   1.000
    O222    O    0.03608   0.47851   0.80180   1.000
    O223    O    0.19753   0.52845   0.78706   1.000
    O224    O    0.26950   0.43028   0.81793   1.000
    O225    O    0.19753   0.02845   0.78706   1.000
    O226    O    0.26950   0.93027   0.81793   1.000
    O227    O    0.69752   0.52845   0.78706   1.000
    O228    O    0.76950   0.43028   0.81793   1.000
    O229    O    0.69752   0.02845   0.78706   1.000
    O230    O    0.76950   0.93027   0.81793   1.000
    O231    O    0.10406   0.08507   0.80969   1.000
    O232    O    0.10406   0.58506   0.80969   1.000
    O233    O    0.60405   0.08507   0.80970   1.000
    O234    O    0.60405   0.58506   0.80970   1.000
    O235    O    0.08110   0.03043   0.84914   1.000
    O236    O    0.08110   0.53044   0.84914   1.000
    O237    O    0.58109   0.03043   0.84915   1.000
    O238    O    0.58109   0.53043   0.84915   1.000
    O239    O    0.82655   0.37634   0.85071   1.000
    O240    O    0.82656   0.87633   0.85071   1.000
    O241    O    0.32656   0.37634   0.85071   1.000
    O242    O    0.32656   0.87633   0.85071   1.000
    O243    O    0.08875   0.47184   0.86115   1.000
    O244    O    0.58875   0.47184   0.86115   1.000
    O245    O    0.58876   0.97183   0.86115   1.000
    O246    O    0.08876   0.97183   0.86116   1.000
    O247    O    0.32396   0.40481   0.74738   1.000
    O248    O    0.32396   0.90480   0.74738   1.000
    O249    O    0.82396   0.40480   0.74738   1.000
    O250    O    0.82396   0.90479   0.74738   1.000
    O251    O    0.09474   0.17576   0.75275   1.000
    O252    O    0.09475   0.67575   0.75275   1.000
    O253    O    0.59474   0.17576   0.75275   1.000
    O254    O    0.59474   0.67575   0.75275   1.000
    O255    O    0.17600   0.09520   0.25265   1.000
    O256    O    0.17600   0.59520   0.25265   1.000
    O257    O    0.67600   0.09520   0.25265   1.000
    O258    O    0.67600   0.59519   0.25265   1.000
    O259    O    0.40522   0.32425   0.24728   1.000
    O260    O    0.40522   0.82424   0.24728   1.000
    O261    O    0.90521   0.32425   0.24728   1.000
    O262    O    0.90522   0.82424   0.24728   1.000
    N263    N    0.56843   0.30505   0.42310   1.000
    O264    O    0.57572   0.27149   0.51541   1.000
    O265    O    0.54421   0.34074   0.50905   1.000
    O266    O    0.54853   0.36873   0.35541   1.000
    O267    O    0.58658   0.24730   0.36863   1.000
    N268    N    0.80490   0.56826   0.92319   1.000
    O269    O    0.74701   0.58626   0.86874   1.000
    O270    O    0.84070   0.54440   0.00912   1.000
    O271    O    0.86851   0.54814   0.85547   1.000
    O272    O    0.77142   0.57597   0.01546   1.000
    N273    N    0.43153   0.19496   0.57688   1.000
    O274    O    0.41338   0.25271   0.63138   1.000
    O275    O    0.42424   0.22852   0.48458   1.000
    O276    O    0.45575   0.15926   0.49095   1.000
    O277    O    0.45143   0.13127   0.64460   1.000
    N278    N    0.06844   0.30505   0.42314   1.000
    O279    O    0.04421   0.34074   0.50907   1.000
    O280    O    0.08658   0.24730   0.36865   1.000
    O281    O    0.04853   0.36873   0.35543   1.000
    O282    O    0.07572   0.27149   0.51543   1.000
    N283    N    0.80489   0.06826   0.92319   1.000
    O284    O    0.86850   0.04815   0.85547   1.000
    O285    O    0.84070   0.04441   0.00912   1.000
    O286    O    0.77142   0.07598   0.01546   1.000
    O287    O    0.74701   0.08626   0.86874   1.000
    N288    N    0.06844   0.80504   0.42314   1.000
    O289    O    0.08658   0.74729   0.36865   1.000
    O290    O    0.07573   0.77148   0.51543   1.000
    O291    O    0.04421   0.84073   0.50907   1.000
    O292    O    0.04854   0.86872   0.35543   1.000
    N293    N    0.19507   0.43174   0.07651   1.000
    O294    O    0.25295   0.41374   0.13113   1.000
    O295    O    0.13146   0.45186   0.14440   1.000
    O296    O    0.15926   0.45559   0.99074   1.000
    O297    O    0.22854   0.42403   0.98441   1.000
    N298    N    0.69506   0.93173   0.07651   1.000
    O299    O    0.65926   0.95558   0.99074   1.000
    O300    O    0.63145   0.95185   0.14440   1.000
    O301    O    0.75295   0.91373   0.13113   1.000
    O302    O    0.72854   0.92402   0.98441   1.000
    N303    N    0.30490   0.06827   0.92319   1.000
    O304    O    0.34070   0.04441   0.00912   1.000
    O305    O    0.24701   0.08627   0.86874   1.000
    O306    O    0.36851   0.04815   0.85547   1.000
    O307    O    0.27142   0.07598   0.01546   1.000
    N308    N    0.19507   0.93173   0.07651   1.000
    O309    O    0.13146   0.95185   0.14440   1.000
    O310    O    0.15927   0.95558   0.99074   1.000
    O311    O    0.25295   0.91373   0.13113   1.000
    O312    O    0.22854   0.92402   0.98441   1.000
    N313    N    0.69506   0.43174   0.07626   1.000
    O314    O    0.72854   0.42403   0.98428   1.000
    O315    O    0.65926   0.45559   0.99062   1.000
    O316    O    0.63145   0.45186   0.14427   1.000
    O317    O    0.75294   0.41374   0.13101   1.000
    N318    N    0.56844   0.80504   0.42310   1.000
    O319    O    0.58658   0.74729   0.36863   1.000
    O320    O    0.57572   0.77148   0.51543   1.000
    O321    O    0.54421   0.84073   0.50906   1.000
    O322    O    0.54853   0.86872   0.35541   1.000
    N323    N    0.43153   0.69495   0.57689   1.000
    O324    O    0.42424   0.72851   0.48459   1.000
    O325    O    0.41339   0.75270   0.63138   1.000
    O326    O    0.45576   0.65925   0.49095   1.000
    O327    O    0.45143   0.63126   0.63209   1.000
    N328    N    0.93153   0.69495   0.57689   1.000
    O329    O    0.92424   0.72851   0.48459   1.000
    O330    O    0.95143   0.63126   0.64460   1.000
    O331    O    0.91338   0.75270   0.63138   1.000
    O332    O    0.95576   0.65925   0.49095   1.000
    N333    N    0.93153   0.19496   0.57689   1.000
    O334    O    0.91338   0.25271   0.63138   1.000
    O335    O    0.92424   0.22852   0.48459   1.000
    O336    O    0.95143   0.13127   0.64460   1.000
    O337    O    0.95575   0.15926   0.49095   1.000
    N338    N    0.30490   0.56826   0.92319   1.000
    O339    O    0.27142   0.57597   0.01546   1.000
    O340    O    0.24702   0.58626   0.86874   1.000
    O341    O    0.34070   0.54441   0.00912   1.000
loop_
    _geom_bond_atom_site_label_1
    _geom_bond_atom_site_label_2
    _geom_bond_distance
    _geom_bond_site_symmetry_2
    _ccdc_geom_bond_type
    Zr46   O120      0.63440      .   S
    Zr102  O120      0.63440      .   S
    Zr46   O121      0.64214  1_545   S
    Zr99   O121      0.64214      .   S
    Zr47   O122      0.63440      .   S
    Zr103  O122      0.63440      .   S
    Zr47   O123      0.64198      .   S
    Zr98   O123      0.64198      .   S
    Zr44   O124      0.63440      .   S
    Zr100  O124      0.63440      .   S
    Zr44   O125      0.64215  1_545   S
    Zr97   O125      0.64215      .   S
    Zr45   O126      0.63440      .   S
    Zr101  O126      0.63440      .   S
    Zr45   O127      0.64198      .   S
    Zr96   O127      0.64198      .   S
    Zr103  O128      1.13612      .   S
    Zr16   O128      1.13612  1_455   S
    Zr102  O129      1.13611      .   S
    Zr17   O129      1.13611  1_465   S
    Zr101  O130      1.13618      .   S
    Zr18   O130      1.13618      .   S
    Zr100  O131      1.13611      .   S
    Zr19   O131      1.13611  1_565   S
    Zr40   O132      0.63727      .   S
    Zr88   O132      0.63727      .   S
    Zr40   O133      0.64562      .   S
    Zr92   O133      0.64562      .   S
    Zr41   O134      0.63727      .   S
    Zr89   O134      0.63727      .   S
    Zr41   O135      0.64562      .   S
    Zr93   O135      0.64562      .   S
    Zr42   O136      0.63727      .   S
    Zr90   O136      0.63727      .   S
    Zr42   O137      0.64562      .   S
    Zr94   O137      0.64562      .   S
    Zr43   O138      0.63727      .   S
    Zr91   O138      0.63727      .   S
    Zr43   O139      0.64562      .   S
    Zr95   O139      0.64562      .   S
    Zr91   O140      1.14056      .   S
    Zr7    O140      1.14056      .   S
    Zr90   O141      1.14056      .   S
    Zr6    O141      1.14056      .   S
    Zr89   O142      1.14057      .   S
    Zr5    O142      1.14057      .   S
    Zr88   O143      1.14057      .   S
    Zr4    O143      1.14057      .   S
    Zr97   O144      1.10290      .   S
    Zr1    O144      1.10290      .   S
    Zr96   O145      1.10290      .   S
    Zr0    O145      1.10290      .   S
    Zr98   O146      1.10289      .   S
    Zr2    O146      1.10289      .   S
    Zr99   O147      1.10289      .   S
    Zr3    O147      1.10289      .   S
    Zr1    O148      1.20484      .   S
    Zr92   O148      1.20484  1_545   S
    Zr1    O149      1.13425      .   S
    Zr105  O149      1.13425      .   S
    Zr2    O150      1.20469      .   S
    Zr95   O150      1.20469      .   S
    Zr2    O151      1.14032      .   S
    Zr106  O151      1.14032      .   S
    Zr3    O152      1.20485      .   S
    Zr94   O152      1.20485  1_545   S
    Zr3    O153      1.14031      .   S
    Zr107  O153      1.14031      .   S
    Zr0    O154      1.20469      .   S
    Zr93   O154      1.20469      .   S
    Zr0    O155      1.14031      .   S
    Zr104  O155      1.14031      .   S
    Zr19   O156      1.13590  1_565   S
    Zr116  O156      1.13590      .   S
    Zr16   O157      1.13577  1_455   S
    Zr119  O157      1.13577      .   S
    Zr17   O158      1.13589  1_465   S
    Zr118  O158      1.13589      .   S
    Zr18   O159      1.13572      .   S
    Zr117  O159      1.13572      .   S
    Zr111  O160      1.20399  1_655   S
    Zr5    O160      1.20399      .   S
    Zr111  O161      0.64566      .   S
    Zr51   O161      0.64566      .   S
    Zr110  O162      1.20400  1_655   S
    Zr4    O162      1.20400      .   S
    Zr110  O163      0.64566      .   S
    Zr50   O163      0.64566      .   S
    Zr109  O164      1.20402      .   S
    Zr7    O164      1.20402      .   S
    Zr109  O165      0.64564      .   S
    Zr49   O165      0.64564      .   S
    Zr108  O166      1.20402      .   S
    Zr6    O166      1.20402      .   S
    Zr108  O167      0.64565      .   S
    Zr48   O167      0.64565      .   S
    Zr4    O168      1.10279      .   S
    Zr112  O168      1.10279      .   S
    Zr7    O169      1.10278      .   S
    Zr115  O169      1.10278      .   S
    Zr6    O170      1.10278      .   S
    Zr114  O170      1.10278      .   S
    Zr5    O171      1.10278      .   S
    Zr113  O171      1.10278      .   S
    Zr113  O172      0.64196      .   S
    Zr55   O172      0.64196  1_655   S
    Zr114  O173      0.64199      .   S
    Zr52   O173      0.64199      .   S
    Zr115  O174      0.64199      .   S
    Zr53   O174      0.64199      .   S
    Zr112  O175      0.64191      .   S
    Zr54   O175      0.64191  1_655   S
    Zr105  O176      0.63717      .   S
    Zr49   O176      0.63717      .   S
    Zr106  O177      0.63730      .   S
    Zr50   O177      0.63730      .   S
    Zr107  O178      0.63730      .   S
    Zr51   O178      0.63730      .   S
    Zr104  O179      0.63730      .   S
    Zr48   O179      0.63730      .   S
    Zr118  O180      0.63449      .   S
    Zr54   O180      0.63449      .   S
    Zr117  O181      0.63450      .   S
    Zr53   O181      0.63450      .   S
    Zr116  O182      0.63450      .   S
    Zr52   O182      0.63450      .   S
    Zr119  O183      0.63449      .   S
    Zr55   O183      0.63449      .   S
    Zr39   O184      0.63450      .   S
    Zr87   O184      0.63450      .   S
    Zr39   O185      0.64194      .   S
    Zr81   O185      0.64194      .   S
    Zr38   O186      0.63451      .   S
    Zr86   O186      0.63451      .   S
    Zr38   O187      0.64194      .   S
    Zr80   O187      0.64194      .   S
    Zr37   O188      0.63449      .   S
    Zr85   O188      0.63449      .   S
    Zr37   O189      0.64192  1_455   S
    Zr83   O189      0.64192      .   S
    Zr36   O190      0.63450      .   S
    Zr84   O190      0.63450      .   S
    Zr36   O191      0.64191  1_455   S
    Zr82   O191      0.64191      .   S
    Zr85   O192      1.13588      .   S
    Zr22   O192      1.13588  1_645   S
    Zr84   O193      1.13576      .   S
    Zr23   O193      1.13576  1_655   S
    Zr87   O194      1.13588      .   S
    Zr20   O194      1.13588  1_545   S
    Zr86   O195      0.85174      .   S
    Zr21   O195      0.85174      .   S
    Zr32   O196      0.63729      .   S
    Zr72   O196      0.63729      .   S
    Zr32   O197      0.64593      .   S
    Zr76   O197      0.64593      .   S
    Zr33   O198      0.63729      .   S
    Zr73   O198      0.63729      .   S
    Zr33   O199      0.64593      .   S
    Zr77   O199      0.64593      .   S
    Zr34   O200      0.63729      .   S
    Zr74   O200      0.63729      .   S
    Zr34   O201      0.64592      .   S
    Zr78   O201      0.64592      .   S
    Zr35   O202      0.63730      .   S
    Zr75   O202      0.63730      .   S
    Zr35   O203      0.64558      .   S
    Zr79   O203      0.64558      .   S
    Zr75   O204      1.14037      .   S
    Zr11   O204      1.14037      .   S
    Zr73   O205      1.14038      .   S
    Zr9    O205      1.14038      .   S
    Zr72   O206      1.14037      .   S
    Zr8    O206      1.14037      .   S
    Zr74   O207      1.14037      .   S
    Zr10   O207      1.14037      .   S
    Zr80   O208      1.10281      .   S
    Zr12   O208      1.10281      .   S
    Zr81   O209      1.10280      .   S
    Zr13   O209      1.10280      .   S
    Zr82   O210      1.10281      .   S
    Zr14   O210      1.10281      .   S
    Zr83   O211      1.10280      .   S
    Zr15   O211      1.10280      .   S
    Zr12   O212      1.20401      .   S
    Zr78   O212      1.20401      .   S
    Zr12   O213      1.14056      .   S
    Zr56   O213      1.14056      .   S
    Zr15   O214      1.20398      .   S
    Zr77   O214      1.20398  1_455   S
    Zr15   O215      1.14057      .   S
    Zr59   O215      1.14057      .   S
    Zr14   O216      1.20398      .   S
    Zr76   O216      1.20398  1_455   S
    Zr14   O217      1.14056      .   S
    Zr58   O217      1.14056      .   S
    Zr13   O218      1.20400      .   S
    Zr79   O218      1.20400      .   S
    Zr13   O219      1.14056      .   S
    Zr57   O219      1.14056      .   S
    Zr20   O220      1.13609  1_545   S
    Zr71   O220      1.13609      .   S
    Zr22   O221      1.13615  1_645   S
    Zr69   O221      1.13615      .   S
    Zr23   O222      1.13602  1_655   S
    Zr68   O222      1.13602      .   S
    Zr60   O223      1.20471      .   S
    Zr9    O223      1.20471      .   S
    Zr60   O224      0.64561      .   S
    Zr24   O224      0.64561      .   S
    Zr61   O225      1.20486  1_565   S
    Zr8    O225      1.20486      .   S
    Zr61   O226      0.64561      .   S
    Zr25   O226      0.64561      .   S
    Zr62   O227      1.20470      .   S
    Zr11   O227      1.20470      .   S
    Zr62   O228      0.64562      .   S
    Zr26   O228      0.64562      .   S
    Zr63   O229      1.20486  1_565   S
    Zr10   O229      1.20486      .   S
    Zr63   O230      0.64561      .   S
    Zr27   O230      0.64561      .   S
    Zr8    O231      1.10288      .   S
    Zr64   O231      1.10288      .   S
    Zr9    O232      1.10287      .   S
    Zr65   O232      1.10287      .   S
    Zr10   O233      1.10289      .   S
    Zr66   O233      1.10289      .   S
    Zr11   O234      1.10290      .   S
    Zr67   O234      1.10290      .   S
    Zr64   O235      0.64218      .   S
    Zr29   O235      0.64218  1_565   S
    Zr65   O236      0.64202      .   S
    Zr28   O236      0.64202      .   S
    Zr66   O237      0.64215      .   S
    Zr31   O237      0.64215  1_565   S
    Zr67   O238      0.64199      .   S
    Zr30   O238      0.64199      .   S
    Zr58   O239      0.63727      .   S
    Zr26   O239      0.63727      .   S
    Zr59   O240      0.63728      .   S
    Zr27   O240      0.63728      .   S
    Zr56   O241      0.63727      .   S
    Zr24   O241      0.63727      .   S
    Zr57   O242      0.63726      .   S
    Zr25   O242      0.63726      .   S
    Zr68   O243      0.63446      .   S
    Zr28   O243      0.63446      .   S
    Zr70   O244      0.63441      .   S
    Zr30   O244      0.63441      .   S
    Zr71   O245      0.63442      .   S
    Zr31   O245      0.63442      .   S
    Zr69   O246      0.63440      .   S
    Zr29   O246      0.63440      .   S
    Zr60   O247      1.25880      .   S
    Zr12   O247      1.25880      .   S
    Zr61   O248      1.25881      .   S
    Zr13   O248      1.25881      .   S
    Zr62   O249      1.25885      .   S
    Zr14   O249      1.25885      .   S
    Zr63   O250      1.25886      .   S
    Zr15   O250      1.25886      .   S
    Zr76   O251      1.25902      .   S
    Zr8    O251      1.25902      .   S
    Zr77   O252      1.25903      .   S
    Zr9    O252      1.25903      .   S
    Zr78   O253      1.25903      .   S
    Zr10   O253      1.25903      .   S
    Zr79   O254      1.25903      .   S
    Zr11   O254      1.25903      .   S
    Zr92   O255      1.25885      .   S
    Zr4    O255      1.25885      .   S
    Zr93   O256      1.25884      .   S
    Zr5    O256      1.25884      .   S
    Zr94   O257      1.25880      .   S
    Zr6    O257      1.25880      .   S
    Zr95   O258      1.25879      .   S
    Zr7    O258      1.25879      .   S
    Zr108  O259      1.25895      .   S
    Zr0    O259      1.25895      .   S
    Zr109  O260      1.25895      .   S
    Zr1    O260      1.25895      .   S
    Zr110  O261      1.25895      .   S
    Zr2    O261      1.25895      .   S
    Zr111  O262      1.25894      .   S
    Zr3    O262      1.25894      .   S
    N263   O264      1.54448      .   S
    Zr34   O264      2.27777      .   S
    N263   O265      1.54871      .   S
    Zr38   O265      2.29159      .   S
    N263   O266      1.45924      .   S
    Zr18   O266      2.56388      .   S
    N263   O267      1.42571      .   S
    Zr6    O267      2.49233      .   S
    N268   O269      1.42677      .   S
    Zr11   O269      2.49405      .   S
    N268   O270      1.54831  1_556   S
    Zr47   O270      2.29131      .   S
    N268   O271      1.45947      .   S
    Zr23   O271      2.56403      .   S
    N268   O272      1.54419  1_556   S
    Zr43   O272      2.27786      .   S
    N273   O274      1.42598      .   S
    Zr12   O274      2.49266      .   S
    N273   O275      1.54427      .   S
    Zr48   O275      2.27786      .   S
    N273   O276      1.54833      .   S
    Zr52   O276      2.29121      .   S
    N273   O277      1.45956      .   S
    Zr20   O277      2.56416      .   S
    N278   O279      1.54841      .   S
    Zr36   O279      2.29129      .   S
    N278   O280      1.42594      .   S
    Zr4    O280      2.49255      .   S
    N278   O281      1.45953      .   S
    Zr16   O281      2.56407      .   S
    N278   O282      1.54419      .   S
    Zr32   O282      2.27749      .   S
    N283   O284      1.45947      .   S
    Zr22   O284      2.56404      .   S
    N283   O285      1.54832  1_556   S
    Zr46   O285      2.29131      .   S
    N283   O286      1.54420  1_556   S
    Zr42   O286      2.27786      .   S
    N283   O287      1.42676      .   S
    Zr10   O287      2.49404      .   S
    N288   O289      1.42594      .   S
    Zr5    O289      2.49254      .   S
    N288   O290      1.54419      .   S
    Zr33   O290      2.27748      .   S
    N288   O291      1.54841      .   S
    Zr37   O291      2.29129      .   S
    N288   O292      1.45953      .   S
    Zr17   O292      2.56406      .   S
    N293   O294      1.42872      .   S
    Zr0    O294      2.49580      .   S
    N293   O295      1.46125      .   S
    Zr16   O295      2.56556      .   S
    N293   O296      1.54579  1_554   S
    Zr28   O296      2.28886      .   S
    N293   O297      1.54170  1_554   S
    Zr24   O297      2.27545      .   S
    N298   O299      1.54579  1_554   S
    Zr31   O299      2.28886      .   S
    N298   O300      1.46125      .   S
    Zr19   O300      2.56555      .   S
    N298   O301      1.42871      .   S
    Zr3    O301      2.49577      .   S
    N298   O302      1.54170  1_554   S
    Zr27   O302      2.27544      .   S
    N303   O304      1.54831  1_556   S
    Zr44   O304      2.29131      .   S
    N303   O305      1.42676      .   S
    Zr8    O305      2.49401      .   S
    N303   O306      1.45946      .   S
    Zr20   O306      2.56402      .   S
    N303   O307      1.54419  1_556   S
    Zr40   O307      2.27786      .   S
    N308   O309      1.46126      .   S
    Zr17   O309      2.56557      .   S
    N308   O310      1.54579  1_554   S
    Zr29   O310      2.28886      .   S
    N308   O311      1.42871      .   S
    Zr1    O311      2.49579      .   S
    N308   O312      1.54170  1_554   S
    Zr25   O312      2.27545      .   S
    N313   O314      1.53984  1_554   S
    Zr26   O314      2.27364      .   S
    N313   O315      1.54391  1_554   S
    Zr30   O315      2.28703      .   S
    N313   O316      1.46261      .   S
    Zr18   O316      2.56675      .   S
    N313   O317      1.43016      .   S
    Zr2    O317      2.49706      .   S
    N318   O319      1.42575      .   S
    Zr7    O319      2.49238      .   S
    N318   O320      1.54462      .   S
    Zr35   O320      2.27826      .   S
    N318   O321      1.54866      .   S
    Zr39   O321      2.29153      .   S
    N318   O322      1.45931      .   S
    Zr19   O322      2.56398      .   S
    N323   O324      1.54430      .   S
    Zr49   O324      2.27788      .   S
    N323   O325      1.42596      .   S
    Zr13   O325      2.49264      .   S
    N323   O326      1.54836      .   S
    Zr53   O326      2.29124      .   S
    N323   O327      1.33422      .   S
    Zr21   O327      2.27629      .   S
    N328   O329      1.54431      .   S
    Zr51   O329      2.27790      .   S
    N328   O330      1.45952      .   S
    Zr23   O330      2.56412      .   S
    N328   O331      1.42595      .   S
    Zr15   O331      2.49263      .   S
    N328   O332      1.54838      .   S
    Zr55   O332      2.29124      .   S
    N333   O334      1.42595      .   S
    Zr14   O334      2.49262      .   S
    N333   O335      1.54431      .   S
    Zr50   O335      2.27790      .   S
    N333   O336      1.45952      .   S
    Zr22   O336      2.56411      .   S
    N333   O337      1.54838      .   S
    Zr54   O337      2.29124      .   S
    N338   O339      1.54419  1_556   S
    Zr41   O339      2.27786      .   S
    N338   O340      1.42676      .   S
    Zr9    O340      2.49403      .   S
    N338   O341      1.54831  1_556   S
    Zr45   O341      2.29130      .   S
