# CIF file generated by openbabel 2.4.90, see http://openbabel.sf.net
data_I
_chemical_name_common ''
_cell_length_a 20.935
_cell_length_b 20.946
_cell_length_c 16.318
_cell_angle_alpha 80.949
_cell_angle_beta 81.04
_cell_angle_gamma 49.407
_space_group_name_H-M_alt 'P 1'
_space_group_name_Hall 'P 1'
loop_
    _symmetry_equiv_pos_as_xyz
    x,y,z
loop_
    _atom_site_label
    _atom_site_type_symbol
    _atom_site_fract_x
    _atom_site_fract_y
    _atom_site_fract_z
    _atom_site_occupancy
    C0      C    0.35686   0.39637   0.21026   1.000
    C1      C    0.35686   0.89636   0.21026   1.000
    C2      C    0.85685   0.39637   0.21026   1.000
    C3      C    0.85686   0.89636   0.21026   1.000
    C4      C    0.10400   0.14367   0.28961   1.000
    C5      C    0.10400   0.64366   0.28961   1.000
    C6      C    0.60400   0.14366   0.28961   1.000
    C7      C    0.60400   0.64365   0.28961   1.000
    C8      C    0.14310   0.10364   0.78978   1.000
    C9      C    0.14310   0.60363   0.78978   1.000
    C10     C    0.64310   0.10364   0.78978   1.000
    C11     C    0.64310   0.60363   0.78978   1.000
    C12     C    0.39596   0.35635   0.71042   1.000
    C13     C    0.39597   0.85634   0.71042   1.000
    C14     C    0.89597   0.35634   0.71042   1.000
    C15     C    0.89597   0.85633   0.71042   1.000
    C16     C    0.00813   0.49228   0.25003   1.000
    C17     C    0.00813   0.99227   0.25003   1.000
    C18     C    0.50813   0.49228   0.25004   1.000
    C19     C    0.50813   0.99227   0.25003   1.000
    C20     C    0.49183   0.00772   0.75000   1.000
    C21     C    0.49184   0.50771   0.70000   1.000
    C22     C    0.99183   0.00772   0.75000   1.000
    C23     C    0.99183   0.50771   0.75000   1.000
    C24     C    0.34772   0.36928   0.99630   1.000
    C25     C    0.34772   0.86928   0.99630   1.000
    C26     C    0.84772   0.36928   0.99632   1.000
    C27     C    0.84772   0.86927   0.99630   1.000
    C28     C    0.19727   0.41418   0.28021   1.000
    C29     C    0.19727   0.91417   0.28021   1.000
    C30     C    0.69727   0.41417   0.28021   1.000
    C31     C    0.69727   0.91416   0.28021   1.000
    C32     C    0.04118   0.00462   0.02655   1.000
    C33     C    0.04118   0.50461   0.02655   1.000
    C34     C    0.54118   0.00462   0.02655   1.000
    C35     C    0.54118   0.50461   0.02655   1.000
    C36     C    0.13025   0.15248   0.50375   1.000
    C37     C    0.13026   0.65247   0.50375   1.000
    C38     C    0.63025   0.15248   0.50375   1.000
    C39     C    0.63025   0.65247   0.50375   1.000
    C40     C    0.08727   0.30292   0.21971   1.000
    C41     C    0.08727   0.80291   0.21971   1.000
    C42     C    0.58726   0.30292   0.21971   1.000
    C43     C    0.58727   0.80291   0.21971   1.000
    C44     C    0.49538   0.45879   0.47300   1.000
    C45     C    0.49539   0.95878   0.47300   1.000
    C46     C    0.99539   0.45879   0.47339   1.000
    C47     C    0.99539   0.95878   0.47339   1.000
    C48     C    0.15224   0.13073   0.00372   1.000
    C49     C    0.15225   0.63072   0.00372   1.000
    C50     C    0.65224   0.13072   0.00372   1.000
    C51     C    0.65224   0.63071   0.00372   1.000
    C52     C    0.30270   0.08583   0.71982   1.000
    C53     C    0.30270   0.58582   0.71982   1.000
    C54     C    0.80269   0.08582   0.71982   1.000
    C55     C    0.80269   0.58581   0.71982   1.000
    C56     C    0.45878   0.49538   0.97348   1.000
    C57     C    0.45878   0.99537   0.97348   1.000
    C58     C    0.95878   0.49538   0.97348   1.000
    C59     C    0.95878   0.99537   0.97348   1.000
    C60     C    0.36971   0.34753   0.49628   1.000
    C61     C    0.36972   0.84752   0.49628   1.000
    C62     C    0.86971   0.34753   0.49628   1.000
    C63     C    0.86971   0.84752   0.49628   1.000
    C64     C    0.41270   0.19709   0.78032   1.000
    C65     C    0.41270   0.69708   0.78032   1.000
    C66     C    0.91269   0.19709   0.78032   1.000
    C67     C    0.91270   0.69708   0.78032   1.000
    C68     C    0.00458   0.04122   0.52664   1.000
    C69     C    0.00458   0.54120   0.52664   1.000
    C70     C    0.50458   0.04122   0.52664   1.000
    C71     C    0.50458   0.54121   0.52664   1.000
    C72     C    0.28705   0.40729   0.85153   1.000
    C73     C    0.28705   0.90728   0.85153   1.000
    C74     C    0.78704   0.40729   0.85153   1.000
    C75     C    0.78704   0.90728   0.85153   1.000
    C76     C    0.23700   0.42536   0.93309   1.000
    C77     C    0.23700   0.92535   0.93309   1.000
    C78     C    0.73699   0.42535   0.93309   1.000
    C79     C    0.73699   0.92535   0.93309   1.000
    C80     C    0.28105   0.39948   0.00000   1.000
    C81     C    0.28105   0.89947   0.00000   1.000
    C82     C    0.78104   0.39948   0.00000   1.000
    C83     C    0.78105   0.89947   0.00000   1.000
    C84     C    0.23812   0.41300   0.08180   1.000
    C85     C    0.23812   0.91299   0.08180   1.000
    C86     C    0.73811   0.41300   0.08180   1.000
    C87     C    0.73812   0.91299   0.08180   1.000
    C88     C    0.19671   0.41925   0.21299   1.000
    C89     C    0.19671   0.91924   0.21299   1.000
    C90     C    0.69671   0.41925   0.21000   1.000
    C91     C    0.69671   0.91924   0.21299   1.000
    C92     C    0.15205   0.44906   0.09020   1.000
    C93     C    0.15205   0.94905   0.09020   1.000
    C94     C    0.65204   0.44906   0.09020   1.000
    C95     C    0.65204   0.94905   0.09020   1.000
    C96     C    0.10760   0.47534   0.01989   1.000
    C97     C    0.10760   0.97533   0.01989   1.000
    C98     C    0.60759   0.47534   0.01989   1.000
    C99     C    0.60759   0.97533   0.01989   1.000
    C100    C    0.14974   0.46452   0.94126   1.000
    C101    C    0.14974   0.96450   0.94126   1.000
    C102    C    0.64974   0.46451   0.94126   1.000
    C103    C    0.64974   0.96450   0.94126   1.000
    C104    C    0.09718   0.49438   0.86869   1.000
    C105    C    0.09718   0.99437   0.86869   1.000
    C106    C    0.59718   0.49438   0.86869   1.000
    C107    C    0.59718   0.99436   0.86869   1.000
    C108    C    0.09199   0.21284   0.64850   1.000
    C109    C    0.09199   0.71283   0.64850   1.000
    C110    C    0.59198   0.21284   0.64850   1.000
    C111    C    0.59198   0.71283   0.64855   1.000
    C112    C    0.07404   0.26303   0.56695   1.000
    C113    C    0.07404   0.76301   0.56695   1.000
    C114    C    0.57403   0.26303   0.56695   1.000
    C115    C    0.57404   0.76301   0.56695   1.000
    C116    C    0.10017   0.21910   0.49607   1.000
    C117    C    0.10017   0.71909   0.49607   1.000
    C118    C    0.60016   0.21910   0.49607   1.000
    C119    C    0.60016   0.71909   0.49607   1.000
    C120    C    0.08710   0.26207   0.41818   1.000
    C121    C    0.08710   0.76206   0.41818   1.000
    C122    C    0.58709   0.26207   0.41810   1.000
    C123    C    0.58710   0.76206   0.41818   1.000
    C124    C    0.08173   0.30348   0.28690   1.000
    C125    C    0.08173   0.80347   0.28690   1.000
    C126    C    0.58172   0.30348   0.28696   1.000
    C127    C    0.58173   0.80347   0.28696   1.000
    C128    C    0.05117   0.34807   0.40977   1.000
    C129    C    0.05117   0.84806   0.40977   1.000
    C130    C    0.55116   0.34807   0.40977   1.000
    C131    C    0.55117   0.84806   0.40977   1.000
    C132    C    0.02455   0.39243   0.48007   1.000
    C133    C    0.02455   0.89242   0.48007   1.000
    C134    C    0.52455   0.39243   0.48000   1.000
    C135    C    0.52455   0.89242   0.48000   1.000
    C136    C    0.03498   0.35023   0.55874   1.000
    C137    C    0.03499   0.85022   0.55874   1.000
    C138    C    0.53499   0.35023   0.55874   1.000
    C139    C    0.53499   0.85022   0.55874   1.000
    C140    C    0.00498   0.40264   0.63128   1.000
    C141    C    0.00499   0.90263   0.63128   1.000
    C142    C    0.50499   0.40264   0.63128   1.000
    C143    C    0.50499   0.90263   0.63128   1.000
    C144    C    0.21292   0.09272   0.14850   1.000
    C145    C    0.21292   0.59271   0.14850   1.000
    C146    C    0.71291   0.09272   0.14850   1.000
    C147    C    0.71292   0.59271   0.14850   1.000
    C148    C    0.26297   0.07465   0.06694   1.000
    C149    C    0.26297   0.57464   0.06694   1.000
    C150    C    0.76296   0.07465   0.06694   1.000
    C151    C    0.76297   0.57464   0.06694   1.000
    C152    C    0.21891   0.10053   0.99606   1.000
    C153    C    0.21892   0.60052   0.99606   1.000
    C154    C    0.71891   0.10053   0.99606   1.000
    C155    C    0.71891   0.60052   0.99606   1.000
    C156    C    0.26184   0.08701   0.91823   1.000
    C157    C    0.26185   0.58700   0.91823   1.000
    C158    C    0.76184   0.08700   0.91823   1.000
    C159    C    0.76184   0.58699   0.91823   1.000
    C160    C    0.30325   0.08076   0.78704   1.000
    C161    C    0.30325   0.58075   0.78704   1.000
    C162    C    0.80325   0.08075   0.78704   1.000
    C163    C    0.80325   0.58074   0.78704   1.000
    C164    C    0.34792   0.05095   0.90983   1.000
    C165    C    0.34792   0.55094   0.90983   1.000
    C166    C    0.84791   0.05094   0.90983   1.000
    C167    C    0.84792   0.55093   0.90983   1.000
    C168    C    0.39237   0.02466   0.98014   1.000
    C169    C    0.39237   0.52465   0.98014   1.000
    C170    C    0.89236   0.02466   0.98014   1.000
    C171    C    0.89237   0.52465   0.98014   1.000
    C172    C    0.35022   0.03549   0.05877   1.000
    C173    C    0.35022   0.53548   0.05877   1.000
    C174    C    0.85022   0.03549   0.05877   1.000
    C175    C    0.85022   0.53548   0.05877   1.000
    C176    C    0.40278   0.00563   0.13134   1.000
    C177    C    0.40278   0.50562   0.13134   1.000
    C178    C    0.90278   0.00563   0.13134   1.000
    C179    C    0.90278   0.50562   0.13134   1.000
    C180    C    0.40797   0.28717   0.35149   1.000
    C181    C    0.40798   0.78716   0.35149   1.000
    C182    C    0.90797   0.28717   0.35149   1.000
    C183    C    0.90797   0.78716   0.35149   1.000
    C184    C    0.42592   0.23698   0.43308   1.000
    C185    C    0.42593   0.73697   0.43308   1.000
    C186    C    0.92592   0.23698   0.43308   1.000
    C187    C    0.92592   0.73697   0.43308   1.000
    C188    C    0.39980   0.28090   0.50397   1.000
    C189    C    0.39980   0.78089   0.50397   1.000
    C190    C    0.89980   0.28090   0.50397   1.000
    C191    C    0.89980   0.78089   0.50397   1.000
    C192    C    0.41287   0.23794   0.58185   1.000
    C193    C    0.41287   0.73793   0.58185   1.000
    C194    C    0.91287   0.23794   0.58185   1.000
    C195    C    0.91287   0.73793   0.58185   1.000
    C196    C    0.41824   0.19652   0.71308   1.000
    C197    C    0.41824   0.69651   0.71308   1.000
    C198    C    0.91824   0.19652   0.71308   1.000
    C199    C    0.91824   0.69651   0.71308   1.000
    C200    C    0.44880   0.15194   0.59020   1.000
    C201    C    0.44880   0.65193   0.59026   1.000
    C202    C    0.94880   0.15193   0.59027   1.000
    C203    C    0.94880   0.65192   0.59027   1.000
    C204    C    0.47542   0.10758   0.51996   1.000
    C205    C    0.47542   0.60757   0.51996   1.000
    C206    C    0.97542   0.10758   0.51996   1.000
    C207    C    0.97542   0.60757   0.51996   1.000
    C208    C    0.46498   0.14978   0.44129   1.000
    C209    C    0.46498   0.64977   0.44129   1.000
    C210    C    0.96498   0.14978   0.44129   1.000
    C211    C    0.96498   0.64977   0.44129   1.000
    C212    C    0.49498   0.09736   0.36875   1.000
    C213    C    0.49498   0.59735   0.36875   1.000
    C214    C    0.99498   0.09736   0.36875   1.000
    C215    C    0.99498   0.59735   0.36875   1.000
    C216    C    0.26480   0.39512   0.16125   1.000
    C217    C    0.26480   0.89511   0.16125   1.000
    C218    C    0.76480   0.39511   0.16125   1.000
    C219    C    0.76480   0.89510   0.16125   1.000
    C220    C    0.12756   0.45167   0.17454   1.000
    C221    C    0.12756   0.95166   0.17454   1.000
    C222    C    0.62756   0.45167   0.17454   1.000
    C223    C    0.62756   0.95166   0.17454   1.000
    C224    C    0.10546   0.23544   0.33870   1.000
    C225    C    0.10546   0.73543   0.33870   1.000
    C226    C    0.60545   0.23544   0.33870   1.000
    C227    C    0.60545   0.73543   0.33870   1.000
    C228    C    0.04914   0.37256   0.32540   1.000
    C229    C    0.04914   0.87255   0.32540   1.000
    C230    C    0.54913   0.37256   0.32542   1.000
    C231    C    0.54914   0.87255   0.32542   1.000
    C232    C    0.23516   0.10489   0.83878   1.000
    C233    C    0.23516   0.60488   0.83878   1.000
    C234    C    0.73516   0.10489   0.83878   1.000
    C235    C    0.73516   0.60488   0.83878   1.000
    C236    C    0.37240   0.04833   0.82549   1.000
    C237    C    0.37240   0.54833   0.82549   1.000
    C238    C    0.87240   0.04833   0.82549   1.000
    C239    C    0.87240   0.54832   0.82549   1.000
    C240    C    0.39451   0.26457   0.66132   1.000
    C241    C    0.39452   0.76456   0.66132   1.000
    C242    C    0.89451   0.26457   0.66132   1.000
    C243    C    0.89451   0.76456   0.66132   1.000
    C244    C    0.45083   0.12745   0.67462   1.000
    C245    C    0.45083   0.62744   0.67460   1.000
    C246    C    0.95082   0.12745   0.67462   1.000
    C247    C    0.95083   0.62744   0.67462   1.000
    C248    C    0.36607   0.34539   0.84990   1.000
    C249    C    0.36607   0.84538   0.84990   1.000
    C250    C    0.86607   0.34539   0.84990   1.000
    C251    C    0.86607   0.84538   0.84990   1.000
    C252    C    0.25196   0.45327   0.78434   1.000
    C253    C    0.25196   0.95326   0.78434   1.000
    C254    C    0.75195   0.45327   0.78434   1.000
    C255    C    0.75195   0.95325   0.78434   1.000
    C256    C    0.06501   0.06650   0.82960   1.000
    C257    C    0.06501   0.56649   0.82960   1.000
    C258    C    0.56500   0.06650   0.82961   1.000
    C259    C    0.56501   0.56649   0.82961   1.000
    C260    C    0.08033   0.44931   0.85360   1.000
    C261    C    0.08033   0.94930   0.85362   1.000
    C262    C    0.58033   0.44930   0.85361   1.000
    C263    C    0.58033   0.94929   0.85361   1.000
    C264    C    0.15349   0.13373   0.65024   1.000
    C265    C    0.15349   0.63372   0.65024   1.000
    C266    C    0.65348   0.13372   0.65024   1.000
    C267    C    0.65348   0.63372   0.65024   1.000
    C268    C    0.04639   0.24788   0.71573   1.000
    C269    C    0.04639   0.74787   0.71573   1.000
    C270    C    0.54639   0.24789   0.71573   1.000
    C271    C    0.54639   0.74788   0.71573   1.000
    C272    C    0.43300   0.43449   0.67031   1.000
    C273    C    0.43300   0.93448   0.67031   1.000
    C274    C    0.93300   0.43449   0.67031   1.000
    C275    C    0.93300   0.93448   0.67031   1.000
    C276    C    0.04991   0.41970   0.64637   1.000
    C277    C    0.04992   0.91969   0.64637   1.000
    C278    C    0.54992   0.41970   0.64637   1.000
    C279    C    0.54992   0.91969   0.64637   1.000
    C280    C    0.13389   0.15462   0.15013   1.000
    C281    C    0.13389   0.65461   0.15013   1.000
    C282    C    0.63389   0.15462   0.15013   1.000
    C283    C    0.63389   0.65461   0.15013   1.000
    C284    C    0.24801   0.04674   0.21569   1.000
    C285    C    0.24801   0.54673   0.21569   1.000
    C286    C    0.74801   0.04674   0.21569   1.000
    C287    C    0.74801   0.54673   0.21569   1.000
    C288    C    0.43495   0.43351   0.17042   1.000
    C289    C    0.43496   0.93350   0.17042   1.000
    C290    C    0.93495   0.43351   0.17042   1.000
    C291    C    0.93495   0.93349   0.17042   1.000
    C292    C    0.41964   0.05070   0.14641   1.000
    C293    C    0.41964   0.55069   0.14641   1.000
    C294    C    0.91964   0.05069   0.14641   1.000
    C295    C    0.91964   0.55068   0.14641   1.000
    C296    C    0.34647   0.36628   0.34979   1.000
    C297    C    0.34647   0.86627   0.34900   1.000
    C298    C    0.84646   0.36628   0.34979   1.000
    C299    C    0.84646   0.86627   0.34979   1.000
    C300    C    0.45357   0.25213   0.28430   1.000
    C301    C    0.45357   0.75212   0.28430   1.000
    C302    C    0.95357   0.25213   0.28430   1.000
    C303    C    0.95357   0.75212   0.28430   1.000
    C304    C    0.06696   0.06552   0.32972   1.000
    C305    C    0.06697   0.56551   0.32970   1.000
    C306    C    0.56697   0.06552   0.32970   1.000
    C307    C    0.56697   0.56551   0.32970   1.000
    C308    C    0.45004   0.08031   0.35366   1.000
    C309    C    0.45005   0.58030   0.35366   1.000
    C310    C    0.95005   0.08031   0.35366   1.000
    C311    C    0.95005   0.58029   0.35366   1.000
    O312    O    0.75958   0.90623   0.04090   1.000
    O313    O    0.75902   0.91241   0.96654   1.000
    O314    O    0.81438   0.88437   0.99815   1.000
    O315    O    0.25958   0.40624   0.04090   1.000
    O316    O    0.25902   0.41242   0.96654   1.000
    O317    O    0.31438   0.38438   0.99815   1.000
    O318    O    0.25958   0.90623   0.04090   1.000
    O319    O    0.25902   0.91241   0.96654   1.000
    O320    O    0.31438   0.88437   0.99815   1.000
    O321    O    0.75958   0.40624   0.04090   1.000
    O322    O    0.75902   0.41242   0.96654   1.000
    O323    O    0.81438   0.38438   0.99816   1.000
    O324    O    0.18558   0.11563   0.99989   1.000
    O325    O    0.18558   0.61562   0.99989   1.000
    O326    O    0.68558   0.11562   0.99989   1.000
    O327    O    0.68558   0.61561   0.99989   1.000
    O328    O    0.57439   0.98998   0.02322   1.000
    O329    O    0.62982   0.96219   0.05505   1.000
    O330    O    0.62867   0.96992   0.98057   1.000
    O331    O    0.57439   0.48998   0.02322   1.000
    O332    O    0.62982   0.46220   0.05505   1.000
    O333    O    0.62867   0.46993   0.98057   1.000
    O334    O    0.07439   0.98998   0.02322   1.000
    O335    O    0.12982   0.96219   0.05505   1.000
    O336    O    0.12867   0.96992   0.98057   1.000
    O337    O    0.07439   0.48998   0.02322   1.000
    O338    O    0.12982   0.46220   0.05505   1.000
    O339    O    0.12867   0.46993   0.98057   1.000
    O340    O    0.30659   0.05507   0.06285   1.000
    O341    O    0.37650   0.02056   0.09505   1.000
    O342    O    0.37129   0.03008   0.01946   1.000
    O343    O    0.80659   0.55506   0.06285   1.000
    O344    O    0.87650   0.52055   0.09505   1.000
    O345    O    0.87129   0.53007   0.01946   1.000
    O346    O    0.80659   0.05507   0.06285   1.000
    O347    O    0.87650   0.02056   0.09505   1.000
    O348    O    0.87129   0.03008   0.01946   1.000
    O349    O    0.30660   0.55506   0.06285   1.000
    O350    O    0.37650   0.52055   0.09505   1.000
    O351    O    0.37130   0.53007   0.01946   1.000
    O352    O    0.73794   0.08369   0.10772   1.000
    O353    O    0.74094   0.08759   0.03150   1.000
    O354    O    0.23794   0.58368   0.10772   1.000
    O355    O    0.24094   0.58758   0.03150   1.000
    O356    O    0.23794   0.08369   0.10772   1.000
    O357    O    0.24094   0.08759   0.03150   1.000
    O358    O    0.73794   0.58368   0.10772   1.000
    O359    O    0.74094   0.58758   0.03150   1.000
    O360    O    0.19508   0.43103   0.08600   1.000
    O361    O    0.25146   0.40406   0.12153   1.000
    O362    O    0.19508   0.93102   0.08600   1.000
    O363    O    0.25146   0.90405   0.12153   1.000
    O364    O    0.69508   0.43103   0.08600   1.000
    O365    O    0.75146   0.40405   0.12153   1.000
    O366    O    0.69508   0.93102   0.08600   1.000
    O367    O    0.75146   0.90404   0.12153   1.000
    O368    O    0.13980   0.45036   0.13237   1.000
    O369    O    0.13980   0.95036   0.13237   1.000
    O370    O    0.63980   0.95035   0.13237   1.000
    O371    O    0.63980   0.45036   0.13237   1.000
    O372    O    0.91121   0.02816   0.13888   1.000
    O373    O    0.91886   0.96956   0.15088   1.000
    O374    O    0.91121   0.52815   0.13888   1.000
    O375    O    0.91886   0.46956   0.15088   1.000
    O376    O    0.41121   0.02816   0.13888   1.000
    O377    O    0.41887   0.96956   0.15088   1.000
    O378    O    0.41121   0.52815   0.13888   1.000
    O379    O    0.41887   0.46956   0.15088   1.000
    O380    O    0.96389   0.52148   0.19822   1.000
    O381    O    0.96388   0.02148   0.19822   1.000
    O382    O    0.46388   0.52149   0.19822   1.000
    O383    O    0.46388   0.02149   0.19822   1.000
    O384    O    0.17341   0.12367   0.14932   1.000
    O385    O    0.23046   0.06973   0.18209   1.000
    O386    O    0.17341   0.62366   0.14932   1.000
    O387    O    0.23047   0.56972   0.18209   1.000
    O388    O    0.67340   0.12367   0.14932   1.000
    O389    O    0.73046   0.06973   0.18209   1.000
    O390    O    0.67340   0.62366   0.14932   1.000
    O391    O    0.73046   0.56972   0.18209   1.000
    O392    O    0.61895   0.64913   0.21987   1.000
    O393    O    0.61894   0.14914   0.21987   1.000
    O394    O    0.11895   0.64913   0.21987   1.000
    O395    O    0.11894   0.14914   0.21987   1.000
    O396    O    0.31083   0.89573   0.18576   1.000
    O397    O    0.23076   0.90717   0.18712   1.000
    O398    O    0.31083   0.39574   0.18576   1.000
    O399    O    0.23075   0.40718   0.18712   1.000
    O400    O    0.73075   0.40718   0.18562   1.000
    O401    O    0.81083   0.39574   0.18576   1.000
    O402    O    0.81083   0.89573   0.18576   1.000
    O403    O    0.73075   0.90717   0.18712   1.000
    O404    O    0.39591   0.91493   0.19034   1.000
    O405    O    0.39591   0.41494   0.19034   1.000
    O406    O    0.89590   0.41494   0.19034   1.000
    O407    O    0.89590   0.91493   0.19034   1.000
    O408    O    0.16214   0.43546   0.19376   1.000
    O409    O    0.06784   0.47198   0.21229   1.000
    O410    O    0.66213   0.93545   0.19376   1.000
    O411    O    0.56784   0.97197   0.21229   1.000
    O412    O    0.66213   0.43546   0.19227   1.000
    O413    O    0.56784   0.47197   0.21229   1.000
    O414    O    0.16214   0.93545   0.19376   1.000
    O415    O    0.06785   0.97197   0.21229   1.000
    O416    O    0.69699   0.41671   0.24510   1.000
    O417    O    0.30244   0.97155   0.21297   1.000
    O418    O    0.35167   0.88132   0.27963   1.000
    O419    O    0.80243   0.47155   0.21297   1.000
    O420    O    0.85166   0.38132   0.28003   1.000
    O421    O    0.80243   0.97155   0.21297   1.000
    O422    O    0.85166   0.88131   0.28003   1.000
    O423    O    0.30244   0.47155   0.21297   1.000
    O424    O    0.35166   0.38133   0.28003   1.000
    O425    O    0.19699   0.91670   0.24660   1.000
    O426    O    0.19699   0.41671   0.24660   1.000
    O427    O    0.69699   0.91670   0.24660   1.000
    O428    O    0.58450   0.80319   0.25333   1.000
    O429    O    0.58449   0.30320   0.25333   1.000
    O430    O    0.08450   0.30320   0.25331   1.000
    O431    O    0.08450   0.80319   0.25331   1.000
    O432    O    0.52863   0.93241   0.28772   1.000
    O433    O    0.47909   0.03629   0.30184   1.000
    O434    O    0.02863   0.43242   0.28771   1.000
    O435    O    0.97909   0.53629   0.30184   1.000
    O436    O    0.02863   0.93241   0.28771   1.000
    O437    O    0.97909   0.03629   0.30184   1.000
    O438    O    0.52863   0.43242   0.28773   1.000
    O439    O    0.47909   0.53629   0.30185   1.000
    O440    O    0.02879   0.69789   0.28695   1.000
    O441    O    0.93077   0.76964   0.31789   1.000
    O442    O    0.02878   0.19790   0.28695   1.000
    O443    O    0.93077   0.26965   0.31789   1.000
    O444    O    0.52879   0.69789   0.28695   1.000
    O445    O    0.43077   0.76964   0.31789   1.000
    O446    O    0.52878   0.19790   0.28695   1.000
    O447    O    0.43077   0.26965   0.31789   1.000
    O448    O    0.06544   0.83801   0.30615   1.000
    O449    O    0.09360   0.76945   0.31280   1.000
    O450    O    0.06543   0.33802   0.30615   1.000
    O451    O    0.09359   0.26946   0.31280   1.000
    O452    O    0.56543   0.33802   0.30619   1.000
    O453    O    0.59359   0.26946   0.31283   1.000
    O454    O    0.56543   0.83801   0.30619   1.000
    O455    O    0.59359   0.76945   0.31283   1.000
    O456    O    0.08548   0.10459   0.30966   1.000
    O457    O    0.10473   0.18955   0.31415   1.000
    O458    O    0.58548   0.60458   0.30965   1.000
    O459    O    0.60473   0.68954   0.31415   1.000
    O460    O    0.58548   0.10459   0.30965   1.000
    O461    O    0.60472   0.18955   0.31415   1.000
    O462    O    0.08548   0.60459   0.30965   1.000
    O463    O    0.10473   0.68954   0.31415   1.000
    O464    O    0.05015   0.36031   0.36759   1.000
    O465    O    0.05015   0.86030   0.36759   1.000
    O466    O    0.55015   0.36031   0.36760   1.000
    O467    O    0.55015   0.86030   0.36760   1.000
    O468    O    0.03097   0.58143   0.34923   1.000
    O469    O    0.53097   0.08144   0.34923   1.000
    O470    O    0.53097   0.58143   0.34923   1.000
    O471    O    0.03097   0.08144   0.34924   1.000
    O472    O    0.59628   0.74874   0.37844   1.000
    O473    O    0.09628   0.24875   0.37844   1.000
    O474    O    0.59627   0.24875   0.37840   1.000
    O475    O    0.09628   0.74874   0.37844   1.000
    O476    O    0.37722   0.82672   0.35025   1.000
    O477    O    0.87721   0.32672   0.35064   1.000
    O478    O    0.87722   0.82671   0.35064   1.000
    O479    O    0.37722   0.32673   0.35064   1.000
    O480    O    0.41695   0.76207   0.39228   1.000
    O481    O    0.91695   0.76207   0.39228   1.000
    O482    O    0.91695   0.26208   0.39228   1.000
    O483    O    0.41695   0.26208   0.39228   1.000
    O484    O    0.97251   0.08883   0.36120   1.000
    O485    O    0.47251   0.58883   0.36120   1.000
    O486    O    0.47251   0.08884   0.36120   1.000
    O487    O    0.97252   0.58882   0.36120   1.000
    O488    O    0.97998   0.62356   0.40502   1.000
    O489    O    0.97998   0.12357   0.40502   1.000
    O490    O    0.47998   0.62356   0.40502   1.000
    O491    O    0.47998   0.12357   0.40502   1.000
    O492    O    0.06913   0.30507   0.41398   1.000
    O493    O    0.03786   0.37025   0.44492   1.000
    O494    O    0.06913   0.80506   0.41398   1.000
    O495    O    0.03786   0.87024   0.44492   1.000
    O496    O    0.56913   0.30507   0.41393   1.000
    O497    O    0.53785   0.37025   0.44488   1.000
    O498    O    0.56913   0.80506   0.41398   1.000
    O499    O    0.53786   0.87024   0.44488   1.000
    O500    O    0.59363   0.24059   0.45709   1.000
    O501    O    0.09363   0.74058   0.45713   1.000
    O502    O    0.59363   0.74058   0.45713   1.000
    O503    O    0.09363   0.24059   0.45713   1.000
    O504    O    0.94545   0.19338   0.43718   1.000
    O505    O    0.91286   0.25894   0.46853   1.000
    O506    O    0.94545   0.69337   0.43718   1.000
    O507    O    0.91286   0.75893   0.46853   1.000
    O508    O    0.44545   0.69337   0.43718   1.000
    O509    O    0.41287   0.75893   0.46853   1.000
    O510    O    0.44545   0.19338   0.43718   1.000
    O511    O    0.41286   0.25894   0.46853   1.000
    O512    O    0.47020   0.12868   0.48062   1.000
    O513    O    0.47020   0.62867   0.48062   1.000
    O514    O    0.97020   0.12868   0.48062   1.000
    O515    O    0.97020   0.62867   0.48062   1.000
    O516    O    0.50997   0.92560   0.47650   1.000
    O517    O    0.50997   0.42561   0.47650   1.000
    O518    O    0.00997   0.92560   0.47673   1.000
    O519    O    0.00997   0.42561   0.47673   1.000
    O520    O    0.52977   0.37133   0.51937   1.000
    O521    O    0.52977   0.87132   0.51937   1.000
    O522    O    0.02977   0.87132   0.51941   1.000
    O523    O    0.02977   0.37133   0.51941   1.000
    O524    O    0.11521   0.68578   0.49991   1.000
    O525    O    0.08710   0.74105   0.53151   1.000
    O526    O    0.11521   0.18579   0.49991   1.000
    O527    O    0.08710   0.24106   0.53151   1.000
    O528    O    0.61520   0.18579   0.49991   1.000
    O529    O    0.58710   0.24106   0.53151   1.000
    O530    O    0.61521   0.68578   0.49991   1.000
    O531    O    0.58710   0.74105   0.53151   1.000
    O532    O    0.38476   0.31422   0.50012   1.000
    O533    O    0.88475   0.81421   0.50012   1.000
    O534    O    0.88475   0.31422   0.50012   1.000
    O535    O    0.38476   0.81421   0.50012   1.000
    O536    O    0.90633   0.75941   0.54291   1.000
    O537    O    0.90633   0.25942   0.54291   1.000
    O538    O    0.40634   0.75941   0.54291   1.000
    O539    O    0.40633   0.25942   0.54291   1.000
    O540    O    0.49000   0.57439   0.52330   1.000
    O541    O    0.46211   0.62975   0.55511   1.000
    O542    O    0.49000   0.07440   0.52330   1.000
    O543    O    0.46211   0.12976   0.55508   1.000
    O544    O    0.99000   0.07440   0.52330   1.000
    O545    O    0.96211   0.12976   0.55511   1.000
    O546    O    0.99000   0.57439   0.52330   1.000
    O547    O    0.96211   0.62975   0.55511   1.000
    O548    O    0.05451   0.30663   0.56284   1.000
    O549    O    0.01998   0.37644   0.59501   1.000
    O550    O    0.55451   0.80662   0.56284   1.000
    O551    O    0.51999   0.87643   0.59501   1.000
    O552    O    0.55451   0.30663   0.56284   1.000
    O553    O    0.51999   0.37644   0.59501   1.000
    O554    O    0.05451   0.80662   0.56284   1.000
    O555    O    0.01999   0.87643   0.59501   1.000
    O556    O    0.08301   0.73792   0.60772   1.000
    O557    O    0.58301   0.73792   0.60775   1.000
    O558    O    0.58301   0.23793   0.60772   1.000
    O559    O    0.08301   0.23793   0.60772   1.000
    O560    O    0.93083   0.19494   0.58606   1.000
    O561    O    0.90369   0.25125   0.62158   1.000
    O562    O    0.43083   0.19494   0.58602   1.000
    O563    O    0.40369   0.25125   0.62158   1.000
    O564    O    0.43084   0.69493   0.58605   1.000
    O565    O    0.40369   0.75124   0.62158   1.000
    O566    O    0.93083   0.69492   0.58606   1.000
    O567    O    0.90369   0.75124   0.62158   1.000
    O568    O    0.44981   0.13969   0.63241   1.000
    O569    O    0.44982   0.63968   0.63243   1.000
    O570    O    0.94981   0.63968   0.63244   1.000
    O571    O    0.94981   0.13969   0.63244   1.000
    O572    O    0.52745   0.91116   0.63882   1.000
    O573    O    0.46899   0.91856   0.65079   1.000
    O574    O    0.52745   0.41117   0.63882   1.000
    O575    O    0.46899   0.41857   0.65079   1.000
    O576    O    0.02745   0.91116   0.63882   1.000
    O577    O    0.96899   0.91856   0.65079   1.000
    O578    O    0.02745   0.41117   0.63882   1.000
    O579    O    0.96899   0.41857   0.65079   1.000
    O580    O    0.02087   0.96371   0.69819   1.000
    O581    O    0.02087   0.46371   0.69819   1.000
    O582    O    0.52088   0.96371   0.69819   1.000
    O583    O    0.52088   0.46371   0.67319   1.000
    O584    O    0.12274   0.17328   0.64937   1.000
    O585    O    0.06919   0.23036   0.68211   1.000
    O586    O    0.12274   0.67327   0.64937   1.000
    O587    O    0.06919   0.73035   0.68211   1.000
    O588    O    0.62273   0.17328   0.64937   1.000
    O589    O    0.56918   0.23036   0.68211   1.000
    O590    O    0.62273   0.67327   0.64939   1.000
    O591    O    0.56919   0.73035   0.68214   1.000
    O592    O    0.64829   0.61867   0.72001   1.000
    O593    O    0.14830   0.61867   0.72001   1.000
    O594    O    0.14829   0.11868   0.72001   1.000
    O595    O    0.64829   0.11868   0.72001   1.000
    O596    O    0.89524   0.81045   0.68587   1.000
    O597    O    0.90637   0.73054   0.68720   1.000
    O598    O    0.89524   0.31046   0.68587   1.000
    O599    O    0.90637   0.23055   0.68720   1.000
    O600    O    0.39524   0.81045   0.68587   1.000
    O601    O    0.40638   0.73053   0.68720   1.000
    O602    O    0.39524   0.31046   0.68587   1.000
    O603    O    0.40638   0.23055   0.68720   1.000
    O604    O    0.41448   0.39542   0.69037   1.000
    O605    O    0.41448   0.89541   0.69037   1.000
    O606    O    0.91448   0.39541   0.69037   1.000
    O607    O    0.91448   0.89541   0.69037   1.000
    O608    O    0.47133   0.56758   0.68730   1.000
    O609    O    0.43454   0.66198   0.69384   1.000
    O610    O    0.43453   0.16199   0.69385   1.000
    O611    O    0.47133   0.06759   0.71231   1.000
    O612    O    0.93453   0.16199   0.69385   1.000
    O613    O    0.97133   0.06759   0.71231   1.000
    O614    O    0.93453   0.66198   0.69385   1.000
    O615    O    0.97133   0.56758   0.71231   1.000
    O616    O    0.47118   0.30212   0.71307   1.000
    O617    O    0.38102   0.35087   0.78016   1.000
    O618    O    0.97118   0.80210   0.71307   1.000
    O619    O    0.88102   0.85086   0.78016   1.000
    O620    O    0.97118   0.30211   0.71307   1.000
    O621    O    0.88102   0.35087   0.78016   1.000
    O622    O    0.47118   0.80211   0.71307   1.000
    O623    O    0.38102   0.85086   0.78016   1.000
    O624    O    0.91546   0.19681   0.74670   1.000
    O625    O    0.41547   0.19680   0.74670   1.000
    O626    O    0.41547   0.69679   0.74670   1.000
    O627    O    0.91547   0.69679   0.74670   1.000
    O628    O    0.80297   0.58328   0.75343   1.000
    O629    O    0.80297   0.08329   0.75343   1.000
    O630    O    0.30297   0.08329   0.75343   1.000
    O631    O    0.30298   0.58328   0.75343   1.000
    O632    O    0.43212   0.02803   0.78775   1.000
    O633    O    0.53608   0.97851   0.80180   1.000
    O634    O    0.93212   0.02803   0.78775   1.000
    O635    O    0.03608   0.97851   0.80181   1.000
    O636    O    0.93212   0.52802   0.78775   1.000
    O637    O    0.03608   0.47851   0.80180   1.000
    O638    O    0.19753   0.52845   0.78706   1.000
    O639    O    0.26950   0.43028   0.81793   1.000
    O640    O    0.19753   0.02845   0.78706   1.000
    O641    O    0.26950   0.93027   0.81793   1.000
    O642    O    0.69752   0.52845   0.78706   1.000
    O643    O    0.76950   0.43028   0.81793   1.000
    O644    O    0.69752   0.02845   0.78706   1.000
    O645    O    0.76950   0.93027   0.81793   1.000
    O646    O    0.83783   0.56453   0.80627   1.000
    O647    O    0.76921   0.59281   0.81291   1.000
    O648    O    0.83783   0.06454   0.80627   1.000
    O649    O    0.76920   0.09282   0.81291   1.000
    O650    O    0.33783   0.56454   0.80627   1.000
    O651    O    0.26921   0.59282   0.81291   1.000
    O652    O    0.33783   0.06455   0.80627   1.000
    O653    O    0.26921   0.09282   0.81291   1.000
    O654    O    0.10406   0.08507   0.80969   1.000
    O655    O    0.18913   0.10427   0.81428   1.000
    O656    O    0.10406   0.58506   0.80969   1.000
    O657    O    0.18913   0.60426   0.81428   1.000
    O658    O    0.60405   0.08507   0.80970   1.000
    O659    O    0.68913   0.10426   0.81428   1.000
    O660    O    0.60405   0.58506   0.80970   1.000
    O661    O    0.68913   0.60425   0.81428   1.000
    O662    O    0.36016   0.04964   0.86766   1.000
    O663    O    0.36016   0.54963   0.86766   1.000
    O664    O    0.86016   0.04964   0.86766   1.000
    O665    O    0.86016   0.54963   0.86766   1.000
    O666    O    0.08110   0.03043   0.84914   1.000
    O667    O    0.08110   0.53044   0.84914   1.000
    O668    O    0.58109   0.03043   0.84915   1.000
    O669    O    0.58109   0.53043   0.84915   1.000
    O670    O    0.24850   0.09595   0.87850   1.000
    O671    O    0.24851   0.59594   0.87850   1.000
    O672    O    0.74850   0.09595   0.87850   1.000
    O673    O    0.74850   0.59594   0.87850   1.000
    O674    O    0.82655   0.37634   0.85071   1.000
    O675    O    0.82656   0.87633   0.85071   1.000
    O676    O    0.32656   0.37634   0.85071   1.000
    O677    O    0.32656   0.87633   0.85071   1.000
    O678    O    0.26202   0.41632   0.89231   1.000
    O679    O    0.26202   0.91631   0.89231   1.000
    O680    O    0.76202   0.91631   0.89231   1.000
    O681    O    0.76202   0.41632   0.89231   1.000
    O682    O    0.08875   0.47184   0.86115   1.000
    O683    O    0.58875   0.47184   0.86115   1.000
    O684    O    0.58876   0.97183   0.86115   1.000
    O685    O    0.08876   0.97183   0.86116   1.000
    O686    O    0.62346   0.97943   0.90497   1.000
    O687    O    0.62346   0.47944   0.90497   1.000
    O688    O    0.12346   0.97944   0.90497   1.000
    O689    O    0.12346   0.47945   0.90497   1.000
    O690    O    0.80488   0.56896   0.91403   1.000
    O691    O    0.87014   0.53779   0.94498   1.000
    O692    O    0.80488   0.06897   0.91403   1.000
    O693    O    0.87014   0.03780   0.94498   1.000
    O694    O    0.30488   0.56897   0.91403   1.000
    O695    O    0.37014   0.53780   0.94498   1.000
    O696    O    0.30488   0.06898   0.91403   1.000
    O697    O    0.37014   0.03781   0.94498   1.000
    O698    O    0.74038   0.09377   0.95715   1.000
    O699    O    0.24038   0.59376   0.95715   1.000
    O700    O    0.24038   0.09377   0.95715   1.000
    O701    O    0.74038   0.59376   0.95715   1.000
    O702    O    0.69337   0.94492   0.93717   1.000
    O703    O    0.69337   0.44493   0.93717   1.000
    O704    O    0.19337   0.94493   0.93717   1.000
    O705    O    0.19337   0.44494   0.93717   1.000
    O706    O    0.42557   0.01002   0.97681   1.000
    O707    O    0.42557   0.51002   0.97681   1.000
    O708    O    0.92557   0.51002   0.97681   1.000
    O709    O    0.92557   0.01002   0.97681   1.000
    O710    O    0.32396   0.40481   0.74738   1.000
    O711    O    0.32396   0.90480   0.74738   1.000
    O712    O    0.82396   0.40480   0.74738   1.000
    O713    O    0.82396   0.90479   0.74738   1.000
    O714    O    0.09474   0.17576   0.75275   1.000
    O715    O    0.09475   0.67575   0.75275   1.000
    O716    O    0.59474   0.17576   0.75275   1.000
    O717    O    0.59474   0.67575   0.75275   1.000
    O718    O    0.17600   0.09520   0.25265   1.000
    O719    O    0.17600   0.59520   0.25265   1.000
    O720    O    0.67600   0.09520   0.25265   1.000
    O721    O    0.67600   0.59519   0.25265   1.000
    O722    O    0.40522   0.32425   0.24728   1.000
    O723    O    0.40522   0.82424   0.24728   1.000
    O724    O    0.90521   0.32425   0.24728   1.000
    O725    O    0.90522   0.82424   0.24728   1.000
loop_
    _geom_bond_atom_site_label_1
    _geom_bond_atom_site_label_2
    _geom_bond_distance
    _geom_bond_site_symmetry_2
    _ccdc_geom_bond_type
    C83    O312      0.72175      .   S
    C87    O312      0.72175      .   S
    C83    O313      0.67330  1_554   S
    C79    O313      0.67330      .   S
    C83    O314      0.54515  1_554   S
    C27    O314      0.54515      .   S
    C80    O315      0.72175      .   S
    C84    O315      0.72175      .   S
    C80    O316      0.67330  1_554   S
    C76    O316      0.67330      .   S
    C80    O317      0.54515  1_554   S
    C24    O317      0.54515      .   S
    C81    O318      0.72175      .   S
    C85    O318      0.72175      .   S
    C81    O319      0.67330  1_554   S
    C77    O319      0.67330      .   S
    C81    O320      0.54514  1_554   S
    C25    O320      0.54514      .   S
    C82    O321      0.72175      .   S
    C86    O321      0.72175      .   S
    C82    O322      0.67330  1_554   S
    C78    O322      0.67330      .   S
    C82    O323      0.54515  1_554   S
    C26    O323      0.54515      .   S
    C48    O324      0.54439  1_554   S
    C152   O324      0.54439      .   S
    C49    O325      0.54439  1_554   S
    C153   O325      0.54439      .   S
    C50    O326      0.54440  1_554   S
    C154   O326      0.54440      .   S
    C51    O327      0.54440  1_554   S
    C155   O327      0.54440      .   S
    C99    O328      0.54434      .   S
    C34    O328      0.54434  1_545   S
    C99    O329      0.69865      .   S
    C95    O329      0.69865      .   S
    C99    O330      0.69906  1_554   S
    C103   O330      0.69906      .   S
    C98    O331      0.54437      .   S
    C35    O331      0.54437      .   S
    C98    O332      0.69865      .   S
    C94    O332      0.69865      .   S
    C98    O333      0.69906  1_554   S
    C102   O333      0.69906      .   S
    C97    O334      0.54434      .   S
    C32    O334      0.54434  1_545   S
    C97    O335      0.69865      .   S
    C93    O335      0.69865      .   S
    C97    O336      0.69905  1_554   S
    C101   O336      0.69905      .   S
    C96    O337      0.54437      .   S
    C33    O337      0.54437      .   S
    C96    O338      0.69865      .   S
    C92    O338      0.69865      .   S
    C96    O339      0.69905  1_554   S
    C100   O339      0.69905      .   S
    C172   O340      0.71344      .   S
    C148   O340      0.71344      .   S
    C172   O341      0.75522      .   S
    C176   O341      0.75522      .   S
    C172   O342      0.69905      .   S
    C168   O342      0.69905  1_556   S
    C175   O343      0.71345      .   S
    C151   O343      0.71345      .   S
    C175   O344      0.75522      .   S
    C179   O344      0.75522      .   S
    C175   O345      0.69905      .   S
    C171   O345      0.69905  1_556   S
    C174   O346      0.71345      .   S
    C150   O346      0.71345      .   S
    C174   O347      0.75523      .   S
    C178   O347      0.75523      .   S
    C174   O348      0.69906      .   S
    C170   O348      0.69906  1_556   S
    C173   O349      0.71344      .   S
    C149   O349      0.71344      .   S
    C173   O350      0.75522      .   S
    C177   O350      0.75522      .   S
    C173   O351      0.69905      .   S
    C169   O351      0.69905  1_556   S
    C150   O352      0.74505      .   S
    C146   O352      0.74505      .   S
    C150   O353      0.70118      .   S
    C154   O353      0.70118  1_556   S
    C149   O354      0.74505      .   S
    C145   O354      0.74505      .   S
    C149   O355      0.70118      .   S
    C153   O355      0.70118  1_556   S
    C148   O356      0.74505      .   S
    C144   O356      0.74505      .   S
    C148   O357      0.70118      .   S
    C152   O357      0.70118  1_556   S
    C151   O358      0.74505      .   S
    C147   O358      0.74505      .   S
    C151   O359      0.70118      .   S
    C155   O359      0.70118  1_556   S
    C84    O360      0.71075      .   S
    C92    O360      0.71075      .   S
    C84    O361      0.69528      .   S
    C216   O361      0.69528      .   S
    C85    O362      0.71075      .   S
    C93    O362      0.71075      .   S
    C85    O363      0.69528      .   S
    C217   O363      0.69528      .   S
    C86    O364      0.71075      .   S
    C94    O364      0.71075      .   S
    C86    O365      0.69528      .   S
    C218   O365      0.69528      .   S
    C87    O366      0.71075      .   S
    C95    O366      0.71075      .   S
    C87    O367      0.69528      .   S
    C219   O367      0.69528      .   S
    C92    O368      0.69413      .   S
    C220   O368      0.69413      .   S
    C93    O369      0.69414      .   S
    C221   O369      0.69414      .   S
    C95    O370      0.69413      .   S
    C223   O370      0.69413      .   S
    C94    O371      0.69413      .   S
    C222   O371      0.69413      .   S
    C178   O372      0.63440      .   S
    C294   O372      0.63440      .   S
    C178   O373      0.64214  1_545   S
    C291   O373      0.64214      .   S
    C179   O374      0.63440      .   S
    C295   O374      0.63440      .   S
    C179   O375      0.64198      .   S
    C290   O375      0.64198      .   S
    C176   O376      0.63440      .   S
    C292   O376      0.63440      .   S
    C176   O377      0.64215  1_545   S
    C289   O377      0.64215      .   S
    C177   O378      0.63440      .   S
    C293   O378      0.63440      .   S
    C177   O379      0.64198      .   S
    C288   O379      0.64198      .   S
    C295   O380      1.13612      .   S
    C16    O380      1.13612  1_455   S
    C294   O381      1.13611      .   S
    C17    O381      1.13611  1_465   S
    C293   O382      1.13618      .   S
    C18    O382      1.13618      .   S
    C292   O383      1.13611      .   S
    C19    O383      1.13611  1_565   S
    C144   O384      0.63727      .   S
    C280   O384      0.63727      .   S
    C144   O385      0.64562      .   S
    C284   O385      0.64562      .   S
    C145   O386      0.63727      .   S
    C281   O386      0.63727      .   S
    C145   O387      0.64562      .   S
    C285   O387      0.64562      .   S
    C146   O388      0.63727      .   S
    C282   O388      0.63727      .   S
    C146   O389      0.64562      .   S
    C286   O389      0.64562      .   S
    C147   O390      0.63727      .   S
    C283   O390      0.63727      .   S
    C147   O391      0.64562      .   S
    C287   O391      0.64562      .   S
    C283   O392      1.14056      .   S
    C7     O392      1.14056      .   S
    C282   O393      1.14056      .   S
    C6     O393      1.14056      .   S
    C281   O394      1.14057      .   S
    C5     O394      1.14057      .   S
    C280   O395      1.14057      .   S
    C4     O395      1.14057      .   S
    C217   O396      1.10759      .   S
    C1     O396      1.10759      .   S
    C217   O397      0.67490      .   S
    C89    O397      0.67490      .   S
    C216   O398      1.10760      .   S
    C0     O398      1.10760      .   S
    C216   O399      0.67490      .   S
    C88    O399      0.67490      .   S
    C218   O400      0.66255      .   S
    C90    O400      0.66255      .   S
    C218   O401      1.10760      .   S
    C2     O401      1.10760      .   S
    C219   O402      1.10759      .   S
    C3     O402      1.10759      .   S
    C219   O403      0.67491      .   S
    C91    O403      0.67491      .   S
    C289   O404      1.10290      .   S
    C1     O404      1.10290      .   S
    C288   O405      1.10290      .   S
    C0     O405      1.10290      .   S
    C290   O406      1.10289      .   S
    C2     O406      1.10289      .   S
    C291   O407      1.10289      .   S
    C3     O407      1.10289      .   S
    C220   O408      0.67454      .   S
    C88    O408      0.67454      .   S
    C220   O409      1.12860      .   S
    C16    O409      1.12860      .   S
    C223   O410      0.67454      .   S
    C91    O410      0.67454      .   S
    C223   O411      1.12860      .   S
    C19    O411      1.12860      .   S
    C222   O412      0.66136      .   S
    C90    O412      0.66136      .   S
    C222   O413      1.12863      .   S
    C18    O413      1.12863      .   S
    C221   O414      0.67455      .   S
    C89    O414      0.67455      .   S
    C221   O415      1.12861      .   S
    C17    O415      1.12861      .   S
    C90    O416      0.56751      .   S
    C30    O416      0.56751      .   S
    C1     O417      1.20484      .   S
    C284   O417      1.20484  1_545   S
    C1     O418      1.13425      .   S
    C297   O418      1.13425      .   S
    C2     O419      1.20469      .   S
    C287   O419      1.20469      .   S
    C2     O420      1.14032      .   S
    C298   O420      1.14032      .   S
    C3     O421      1.20485      .   S
    C286   O421      1.20485  1_545   S
    C3     O422      1.14031      .   S
    C299   O422      1.14031      .   S
    C0     O423      1.20469      .   S
    C285   O423      1.20469      .   S
    C0     O424      1.14031      .   S
    C296   O424      1.14031      .   S
    C89    O425      0.54321      .   S
    C29    O425      0.54321      .   S
    C88    O426      0.54321      .   S
    C28    O426      0.54321      .   S
    C91    O427      0.54321      .   S
    C31    O427      0.54321      .   S
    C43    O428      0.54325      .   S
    C127   O428      0.54325      .   S
    C42    O429      0.54325      .   S
    C126   O429      0.54325      .   S
    C40    O430      0.54277      .   S
    C124   O430      0.54277      .   S
    C41    O431      0.54277      .   S
    C125   O431      0.54277      .   S
    C19    O432      1.12872      .   S
    C231   O432      1.12872      .   S
    C19    O433      1.13590  1_565   S
    C308   O433      1.13590      .   S
    C16    O434      1.12865      .   S
    C228   O434      1.12865      .   S
    C16    O435      1.13577  1_455   S
    C311   O435      1.13577      .   S
    C17    O436      1.12864      .   S
    C229   O436      1.12864      .   S
    C17    O437      1.13589  1_465   S
    C310   O437      1.13589      .   S
    C18    O438      1.12868      .   S
    C230   O438      1.12868      .   S
    C18    O439      1.13572      .   S
    C309   O439      1.13572      .   S
    C303   O440      1.20399  1_655   S
    C5     O440      1.20399      .   S
    C303   O441      0.64566      .   S
    C183   O441      0.64566      .   S
    C302   O442      1.20400  1_655   S
    C4     O442      1.20400      .   S
    C302   O443      0.64566      .   S
    C182   O443      0.64566      .   S
    C301   O444      1.20402      .   S
    C7     O444      1.20402      .   S
    C301   O445      0.64564      .   S
    C181   O445      0.64564      .   S
    C300   O446      1.20402      .   S
    C6     O446      1.20402      .   S
    C300   O447      0.64565      .   S
    C180   O447      0.64565      .   S
    C125   O448      0.67478      .   S
    C229   O448      0.67478      .   S
    C125   O449      0.67510      .   S
    C225   O449      0.67510      .   S
    C124   O450      0.67478      .   S
    C228   O450      0.67478      .   S
    C124   O451      0.67510      .   S
    C224   O451      0.67510      .   S
    C126   O452      0.67460      .   S
    C230   O452      0.67460      .   S
    C126   O453      0.67485      .   S
    C226   O453      0.67485      .   S
    C127   O454      0.67460      .   S
    C231   O454      0.67460      .   S
    C127   O455      0.67485      .   S
    C227   O455      0.67485      .   S
    C4     O456      1.10279      .   S
    C304   O456      1.10279      .   S
    C4     O457      1.10751      .   S
    C224   O457      1.10751      .   S
    C7     O458      1.10278      .   S
    C307   O458      1.10278      .   S
    C7     O459      1.10750      .   S
    C227   O459      1.10750      .   S
    C6     O460      1.10278      .   S
    C306   O460      1.10278      .   S
    C6     O461      1.10749      .   S
    C226   O461      1.10749      .   S
    C5     O462      1.10278      .   S
    C305   O462      1.10278      .   S
    C5     O463      1.10750      .   S
    C225   O463      1.10750      .   S
    C228   O464      0.69426      .   S
    C128   O464      0.69426      .   S
    C229   O465      0.69426      .   S
    C129   O465      0.69426      .   S
    C230   O466      0.69411      .   S
    C130   O466      0.69411      .   S
    C231   O467      0.69411      .   S
    C131   O467      0.69411      .   S
    C305   O468      0.64196      .   S
    C215   O468      0.64196  1_655   S
    C306   O469      0.64199      .   S
    C212   O469      0.64199      .   S
    C307   O470      0.64199      .   S
    C213   O470      0.64199      .   S
    C304   O471      0.64191      .   S
    C214   O471      0.64191  1_655   S
    C227   O472      0.69541      .   S
    C123   O472      0.69541      .   S
    C224   O473      0.69540      .   S
    C120   O473      0.69540      .   S
    C226   O474      0.69478      .   S
    C122   O474      0.69478      .   S
    C225   O475      0.69541      .   S
    C121   O475      0.69541      .   S
    C297   O476      0.63717      .   S
    C181   O476      0.63717      .   S
    C298   O477      0.63730      .   S
    C182   O477      0.63730      .   S
    C299   O478      0.63730      .   S
    C183   O478      0.63730      .   S
    C296   O479      0.63730      .   S
    C180   O479      0.63730      .   S
    C181   O480      0.74503      .   S
    C185   O480      0.74503      .   S
    C183   O481      0.74503      .   S
    C187   O481      0.74503      .   S
    C182   O482      0.74503      .   S
    C186   O482      0.74503      .   S
    C180   O483      0.74503      .   S
    C184   O483      0.74503      .   S
    C310   O484      0.63449      .   S
    C214   O484      0.63449      .   S
    C309   O485      0.63450      .   S
    C213   O485      0.63450      .   S
    C308   O486      0.63450      .   S
    C212   O486      0.63450      .   S
    C311   O487      0.63449      .   S
    C215   O487      0.63449      .   S
    C215   O488      0.75512      .   S
    C211   O488      0.75512      .   S
    C214   O489      0.75512      .   S
    C210   O489      0.75512      .   S
    C213   O490      0.75513      .   S
    C209   O490      0.75513      .   S
    C212   O491      0.75513      .   S
    C208   O491      0.75513      .   S
    C128   O492      0.71074      .   S
    C120   O492      0.71074      .   S
    C128   O493      0.69860      .   S
    C132   O493      0.69860      .   S
    C129   O494      0.71073      .   S
    C121   O494      0.71073      .   S
    C129   O495      0.69860      .   S
    C133   O495      0.69860      .   S
    C130   O496      0.71076      .   S
    C122   O496      0.71076      .   S
    C130   O497      0.69811      .   S
    C134   O497      0.69811      .   S
    C131   O498      0.71074      .   S
    C123   O498      0.71074      .   S
    C131   O499      0.69811      .   S
    C135   O499      0.69811      .   S
    C122   O500      0.69486      .   S
    C118   O500      0.69486      .   S
    C121   O501      0.69432      .   S
    C117   O501      0.69432      .   S
    C123   O502      0.69432      .   S
    C119   O502      0.69432      .   S
    C120   O503      0.69431      .   S
    C116   O503      0.69431      .   S
    C186   O504      0.71354      .   S
    C210   O504      0.71354      .   S
    C186   O505      0.70118      .   S
    C190   O505      0.70118      .   S
    C187   O506      0.71354      .   S
    C211   O506      0.71354      .   S
    C187   O507      0.70118      .   S
    C191   O507      0.70118      .   S
    C185   O508      0.71353      .   S
    C209   O508      0.71353      .   S
    C185   O509      0.70118      .   S
    C189   O509      0.70118      .   S
    C184   O510      0.71353      .   S
    C208   O510      0.71353      .   S
    C184   O511      0.70118      .   S
    C188   O511      0.70118      .   S
    C208   O512      0.69929      .   S
    C204   O512      0.69929      .   S
    C209   O513      0.69929      .   S
    C205   O513      0.69929      .   S
    C210   O514      0.69928      .   S
    C206   O514      0.69928      .   S
    C211   O515      0.69929      .   S
    C207   O515      0.69929      .   S
    C45    O516      0.54436      .   S
    C135   O516      0.54436      .   S
    C44    O517      0.54436      .   S
    C134   O517      0.54436      .   S
    C47    O518      0.54440  1_655   S
    C133   O518      0.54440      .   S
    C46    O519      0.54440  1_655   S
    C132   O519      0.54440      .   S
    C134   O520      0.69977      .   S
    C138   O520      0.69977      .   S
    C135   O521      0.69977      .   S
    C139   O521      0.69977      .   S
    C133   O522      0.69929      .   S
    C137   O522      0.69929      .   S
    C132   O523      0.69929      .   S
    C136   O523      0.69929      .   S
    C117   O524      0.54441      .   S
    C37    O524      0.54441      .   S
    C117   O525      0.70111      .   S
    C113   O525      0.70111      .   S
    C116   O526      0.54441      .   S
    C36    O526      0.54441      .   S
    C116   O527      0.70111      .   S
    C112   O527      0.70111      .   S
    C118   O528      0.54441      .   S
    C38    O528      0.54441      .   S
    C118   O529      0.70111      .   S
    C114   O529      0.70111      .   S
    C119   O530      0.54441      .   S
    C39    O530      0.54441      .   S
    C119   O531      0.70111      .   S
    C115   O531      0.70111      .   S
    C60    O532      0.54441      .   S
    C188   O532      0.54441      .   S
    C63    O533      0.54441      .   S
    C191   O533      0.54441      .   S
    C62    O534      0.54441      .   S
    C190   O534      0.54441      .   S
    C61    O535      0.54441      .   S
    C189   O535      0.54441      .   S
    C191   O536      0.69425      .   S
    C195   O536      0.69425      .   S
    C190   O537      0.69425      .   S
    C194   O537      0.69425      .   S
    C189   O538      0.69425      .   S
    C193   O538      0.69425      .   S
    C188   O539      0.69425      .   S
    C192   O539      0.69425      .   S
    C205   O540      0.54440      .   S
    C71    O540      0.54440      .   S
    C205   O541      0.69860      .   S
    C201   O541      0.69860      .   S
    C204   O542      0.54440      .   S
    C70    O542      0.54440      .   S
    C204   O543      0.69818      .   S
    C200   O543      0.69818      .   S
    C206   O544      0.54441      .   S
    C68    O544      0.54441  1_455   S
    C206   O545      0.69866      .   S
    C202   O545      0.69866      .   S
    C207   O546      0.54440      .   S
    C69    O546      0.54440  1_455   S
    C207   O547      0.69867      .   S
    C203   O547      0.69867      .   S
    C136   O548      0.71353      .   S
    C112   O548      0.71353      .   S
    C136   O549      0.75513      .   S
    C140   O549      0.75513      .   S
    C139   O550      0.71353      .   S
    C115   O550      0.71353      .   S
    C139   O551      0.75514      .   S
    C143   O551      0.75514      .   S
    C138   O552      0.71353      .   S
    C114   O552      0.71353      .   S
    C138   O553      0.75515      .   S
    C142   O553      0.75515      .   S
    C137   O554      0.71353      .   S
    C113   O554      0.71353      .   S
    C137   O555      0.75513      .   S
    C141   O555      0.75513      .   S
    C113   O556      0.74476      .   S
    C109   O556      0.74476      .   S
    C115   O557      0.74510      .   S
    C111   O557      0.74510      .   S
    C114   O558      0.74476      .   S
    C110   O558      0.74476      .   S
    C112   O559      0.74476      .   S
    C108   O559      0.74476      .   S
    C194   O560      0.71074      .   S
    C202   O560      0.71074      .   S
    C194   O561      0.69533      .   S
    C242   O561      0.69533      .   S
    C192   O562      0.71075      .   S
    C200   O562      0.71075      .   S
    C192   O563      0.69533      .   S
    C240   O563      0.69533      .   S
    C193   O564      0.71074      .   S
    C201   O564      0.71074      .   S
    C193   O565      0.69533      .   S
    C241   O565      0.69533      .   S
    C195   O566      0.71073      .   S
    C203   O566      0.71073      .   S
    C195   O567      0.69533      .   S
    C243   O567      0.69533      .   S
    C200   O568      0.69464      .   S
    C244   O568      0.69464      .   S
    C201   O569      0.69403      .   S
    C245   O569      0.69403      .   S
    C203   O570      0.69411      .   S
    C247   O570      0.69411      .   S
    C202   O571      0.69411      .   S
    C246   O571      0.69411      .   S
    C143   O572      0.63450      .   S
    C279   O572      0.63450      .   S
    C143   O573      0.64194      .   S
    C273   O573      0.64194      .   S
    C142   O574      0.63451      .   S
    C278   O574      0.63451      .   S
    C142   O575      0.64194      .   S
    C272   O575      0.64194      .   S
    C141   O576      0.63449      .   S
    C277   O576      0.63449      .   S
    C141   O577      0.64192  1_455   S
    C275   O577      0.64192      .   S
    C140   O578      0.63450      .   S
    C276   O578      0.63450      .   S
    C140   O579      0.64191  1_455   S
    C274   O579      0.64191      .   S
    C277   O580      1.13588      .   S
    C22    O580      1.13588  1_645   S
    C276   O581      1.13576      .   S
    C23    O581      1.13576  1_655   S
    C279   O582      1.13588      .   S
    C20    O582      1.13588  1_545   S
    C278   O583      0.85174      .   S
    C21    O583      0.85174      .   S
    C108   O584      0.63729      .   S
    C264   O584      0.63729      .   S
    C108   O585      0.64593      .   S
    C268   O585      0.64593      .   S
    C109   O586      0.63729      .   S
    C265   O586      0.63729      .   S
    C109   O587      0.64593      .   S
    C269   O587      0.64593      .   S
    C110   O588      0.63729      .   S
    C266   O588      0.63729      .   S
    C110   O589      0.64592      .   S
    C270   O589      0.64592      .   S
    C111   O590      0.63730      .   S
    C267   O590      0.63730      .   S
    C111   O591      0.64558      .   S
    C271   O591      0.64558      .   S
    C267   O592      1.14037      .   S
    C11    O592      1.14037      .   S
    C265   O593      1.14038      .   S
    C9     O593      1.14038      .   S
    C264   O594      1.14037      .   S
    C8     O594      1.14037      .   S
    C266   O595      1.14037      .   S
    C10    O595      1.14037      .   S
    C243   O596      1.10756      .   S
    C15    O596      1.10756      .   S
    C243   O597      0.67494      .   S
    C199   O597      0.67494      .   S
    C242   O598      1.10755      .   S
    C14    O598      1.10755      .   S
    C242   O599      0.67494      .   S
    C198   O599      0.67494      .   S
    C241   O600      1.10756      .   S
    C13    O600      1.10756      .   S
    C241   O601      0.67494      .   S
    C197   O601      0.67494      .   S
    C240   O602      1.10756      .   S
    C12    O602      1.10756      .   S
    C240   O603      0.67493      .   S
    C196   O603      0.67493      .   S
    C272   O604      1.10281      .   S
    C12    O604      1.10281      .   S
    C273   O605      1.10280      .   S
    C13    O605      1.10280      .   S
    C274   O606      1.10281      .   S
    C14    O606      1.10281      .   S
    C275   O607      1.10280      .   S
    C15    O607      1.10280      .   S
    C245   O608      1.02226      .   S
    C21    O608      1.02226      .   S
    C245   O609      0.67468      .   S
    C197   O609      0.67468      .   S
    C244   O610      0.67460      .   S
    C196   O610      0.67460      .   S
    C244   O611      1.12870      .   S
    C20    O611      1.12870      .   S
    C246   O612      0.67460      .   S
    C198   O612      0.67460      .   S
    C246   O613      1.12868      .   S
    C22    O613      1.12868      .   S
    C247   O614      0.67460      .   S
    C199   O614      0.67460      .   S
    C247   O615      1.12869      .   S
    C23    O615      1.12869      .   S
    C12    O616      1.20401      .   S
    C270   O616      1.20401      .   S
    C12    O617      1.14056      .   S
    C248   O617      1.14056      .   S
    C15    O618      1.20398      .   S
    C269   O618      1.20398  1_455   S
    C15    O619      1.14057      .   S
    C251   O619      1.14057      .   S
    C14    O620      1.20398      .   S
    C268   O620      1.20398  1_455   S
    C14    O621      1.14056      .   S
    C250   O621      1.14056      .   S
    C13    O622      1.20400      .   S
    C271   O622      1.20400      .   S
    C13    O623      1.14056      .   S
    C249   O623      1.14056      .   S
    C198   O624      0.54317      .   S
    C66    O624      0.54317      .   S
    C196   O625      0.54317      .   S
    C64    O625      0.54317      .   S
    C197   O626      0.54317      .   S
    C65    O626      0.54317      .   S
    C199   O627      0.54317      .   S
    C67    O627      0.54317      .   S
    C55    O628      0.54321      .   S
    C163   O628      0.54321      .   S
    C54    O629      0.54321      .   S
    C162   O629      0.54321      .   S
    C52    O630      0.54321      .   S
    C160   O630      0.54321      .   S
    C53    O631      0.54321      .   S
    C161   O631      0.54321      .   S
    C20    O632      1.12860      .   S
    C236   O632      1.12860      .   S
    C20    O633      1.13609  1_545   S
    C263   O633      1.13609      .   S
    C22    O634      1.12861      .   S
    C238   O634      1.12861      .   S
    C22    O635      1.13615  1_645   S
    C261   O635      1.13615      .   S
    C23    O636      1.12861      .   S
    C239   O636      1.12861      .   S
    C23    O637      1.13602  1_655   S
    C260   O637      1.13602      .   S
    C252   O638      1.20471      .   S
    C9     O638      1.20471      .   S
    C252   O639      0.64561      .   S
    C72    O639      0.64561      .   S
    C253   O640      1.20486  1_565   S
    C8     O640      1.20486      .   S
    C253   O641      0.64561      .   S
    C73    O641      0.64561      .   S
    C254   O642      1.20470      .   S
    C11    O642      1.20470      .   S
    C254   O643      0.64562      .   S
    C74    O643      0.64562      .   S
    C255   O644      1.20486  1_565   S
    C10    O644      1.20486      .   S
    C255   O645      0.64561      .   S
    C75    O645      0.64561      .   S
    C163   O646      0.67455      .   S
    C239   O646      0.67455      .   S
    C163   O647      0.67490      .   S
    C235   O647      0.67490      .   S
    C162   O648      0.67455      .   S
    C238   O648      0.67455      .   S
    C162   O649      0.67490      .   S
    C234   O649      0.67490      .   S
    C161   O650      0.67455      .   S
    C237   O650      0.67455      .   S
    C161   O651      0.67490      .   S
    C233   O651      0.67490      .   S
    C160   O652      0.67455      .   S
    C236   O652      0.67455      .   S
    C160   O653      0.67490      .   S
    C232   O653      0.67490      .   S
    C8     O654      1.10288      .   S
    C256   O654      1.10288      .   S
    C8     O655      1.10756      .   S
    C232   O655      1.10756      .   S
    C9     O656      1.10287      .   S
    C257   O656      1.10287      .   S
    C9     O657      1.10757      .   S
    C233   O657      1.10757      .   S
    C10    O658      1.10289      .   S
    C258   O658      1.10289      .   S
    C10    O659      1.10757      .   S
    C234   O659      1.10757      .   S
    C11    O660      1.10290      .   S
    C259   O660      1.10290      .   S
    C11    O661      1.10757      .   S
    C235   O661      1.10757      .   S
    C236   O662      0.69413      .   S
    C164   O662      0.69413      .   S
    C237   O663      0.69413      .   S
    C165   O663      0.69413      .   S
    C238   O664      0.69414      .   S
    C166   O664      0.69414      .   S
    C239   O665      0.69414      .   S
    C167   O665      0.69414      .   S
    C256   O666      0.64218      .   S
    C105   O666      0.64218  1_565   S
    C257   O667      0.64202      .   S
    C104   O667      0.64202      .   S
    C258   O668      0.64215      .   S
    C107   O668      0.64215  1_565   S
    C259   O669      0.64199      .   S
    C106   O669      0.64199      .   S
    C232   O670      0.69528      .   S
    C156   O670      0.69528      .   S
    C233   O671      0.69528      .   S
    C157   O671      0.69528      .   S
    C234   O672      0.69528      .   S
    C158   O672      0.69528      .   S
    C235   O673      0.69528      .   S
    C159   O673      0.69528      .   S
    C250   O674      0.63727      .   S
    C74    O674      0.63727      .   S
    C251   O675      0.63728      .   S
    C75    O675      0.63728      .   S
    C248   O676      0.63727      .   S
    C72    O676      0.63727      .   S
    C249   O677      0.63726      .   S
    C73    O677      0.63726      .   S
    C72    O678      0.74506      .   S
    C76    O678      0.74506      .   S
    C73    O679      0.74506      .   S
    C77    O679      0.74506      .   S
    C75    O680      0.74505      .   S
    C79    O680      0.74505      .   S
    C74    O681      0.74506      .   S
    C78    O681      0.74506      .   S
    C260   O682      0.63446      .   S
    C104   O682      0.63446      .   S
    C262   O683      0.63441      .   S
    C106   O683      0.63441      .   S
    C263   O684      0.63442      .   S
    C107   O684      0.63442      .   S
    C261   O685      0.63440      .   S
    C105   O685      0.63440      .   S
    C107   O686      0.75522      .   S
    C103   O686      0.75522      .   S
    C106   O687      0.75522      .   S
    C102   O687      0.75522      .   S
    C105   O688      0.75522      .   S
    C101   O688      0.75522      .   S
    C104   O689      0.75522      .   S
    C100   O689      0.75522      .   S
    C167   O690      0.71075      .   S
    C159   O690      0.71075      .   S
    C167   O691      0.69866      .   S
    C171   O691      0.69866      .   S
    C166   O692      0.71075      .   S
    C158   O692      0.71075      .   S
    C166   O693      0.69866      .   S
    C170   O693      0.69866      .   S
    C165   O694      0.71075      .   S
    C157   O694      0.71075      .   S
    C165   O695      0.69866      .   S
    C169   O695      0.69866      .   S
    C164   O696      0.71075      .   S
    C156   O696      0.71075      .   S
    C164   O697      0.69866      .   S
    C168   O697      0.69866      .   S
    C158   O698      0.69414      .   S
    C154   O698      0.69414      .   S
    C157   O699      0.69414      .   S
    C153   O699      0.69414      .   S
    C156   O700      0.69414      .   S
    C152   O700      0.69414      .   S
    C159   O701      0.69414      .   S
    C155   O701      0.69414      .   S
    C79    O702      0.71345      .   S
    C103   O702      0.71345      .   S
    C78    O703      0.71344      .   S
    C102   O703      0.71344      .   S
    C77    O704      0.71345      .   S
    C101   O704      0.71345      .   S
    C76    O705      0.71345      .   S
    C100   O705      0.71345      .   S
    C57    O706      0.54434  1_565   S
    C168   O706      0.54434      .   S
    C56    O707      0.54437      .   S
    C169   O707      0.54437      .   S
    C58    O708      0.54437      .   S
    C171   O708      0.54437      .   S
    C59    O709      0.54433  1_565   S
    C170   O709      0.54433      .   S
    C252   O710      1.25880      .   S
    C12    O710      1.25880      .   S
    C253   O711      1.25881      .   S
    C13    O711      1.25881      .   S
    C254   O712      1.25885      .   S
    C14    O712      1.25885      .   S
    C255   O713      1.25886      .   S
    C15    O713      1.25886      .   S
    C268   O714      1.25902      .   S
    C8     O714      1.25902      .   S
    C269   O715      1.25903      .   S
    C9     O715      1.25903      .   S
    C270   O716      1.25903      .   S
    C10    O716      1.25903      .   S
    C271   O717      1.25903      .   S
    C11    O717      1.25903      .   S
    C284   O718      1.25885      .   S
    C4     O718      1.25885      .   S
    C285   O719      1.25884      .   S
    C5     O719      1.25884      .   S
    C286   O720      1.25880      .   S
    C6     O720      1.25880      .   S
    C287   O721      1.25879      .   S
    C7     O721      1.25879      .   S
    C300   O722      1.25895      .   S
    C0     O722      1.25895      .   S
    C301   O723      1.25895      .   S
    C1     O723      1.25895      .   S
    C302   O724      1.25895      .   S
    C2     O724      1.25895      .   S
    C303   O725      1.25894      .   S
    C3     O725      1.25894      .   S
