# CIF file generated by openbabel 2.4.90, see http://openbabel.sf.net
data_I
_chemical_name_common ''
_cell_length_a 14.132
_cell_length_b 18.093
_cell_length_c 19.553
_cell_angle_alpha 98.827
_cell_angle_beta 90.064
_cell_angle_gamma 90.027
_space_group_name_H-M_alt 'P 1'
_space_group_name_Hall 'P 1'
loop_
    _symmetry_equiv_pos_as_xyz
    x,y,z
loop_
    _atom_site_label
    _atom_site_type_symbol
    _atom_site_fract_x
    _atom_site_fract_y
    _atom_site_fract_z
    _atom_site_occupancy
    Cd0     Cd   0.19300   0.66485   0.35020   1.000
    Cd1     Cd   0.12604   0.47632   0.98006   1.000
    Cd2     Cd   0.26448   0.60045   0.16113   1.000
    Cd3     Cd   0.20845   0.18357   0.96324   1.000
    Cd4     Cd   0.19312   0.33511   0.14973   1.000
    Cd5     Cd   0.12623   0.52380   0.51994   1.000
    Cd6     Cd   0.26419   0.39954   0.33889   1.000
    Cd7     Cd   0.79114   0.18364   0.46290   1.000
    Cd8     Cd   0.80702   0.33510   0.64965   1.000
    Cd9     Cd   0.87399   0.52373   0.02000   1.000
    Cd10    Cd   0.73556   0.39960   0.83886   1.000
    Cd11    Cd   0.79158   0.81645   0.03671   1.000
    Cd12    Cd   0.80696   0.66488   0.85020   1.000
    Cd13    Cd   0.87380   0.47630   0.48010   1.000
    Cd14    Cd   0.73578   0.60052   0.66114   1.000
    H15     H    0.02260   0.92390   0.36497   1.000
    H16     H    0.94895   0.92822   0.24869   1.000
    H17     H    0.93455   0.69014   0.21160   1.000
    H18     H    0.89152   0.63130   0.39381   1.000
    H19     H    0.95183   0.71155   0.43438   1.000
    H20     H    0.92110   0.59692   0.26237   1.000
    H21     H    0.00413   0.54997   0.30869   1.000
    H22     H    0.34983   0.63942   0.90565   1.000
    H23     H    0.48585   0.72801   0.91779   1.000
    H24     H    0.56333   0.65548   0.10819   1.000
    H25     H    0.47399   0.44208   0.09337   1.000
    H26     H    0.39793   0.46414   0.02876   1.000
    H27     H    0.55818   0.57452   0.16198   1.000
    H28     H    0.48548   0.50887   0.19232   1.000
    H29     H    0.09103   0.70717   0.10218   1.000
    H30     H    0.07714   0.82775   0.05848   1.000
    H31     H    0.37834   0.85869   0.09523   1.000
    Cd32    Cd   0.20884   0.81634   0.53697   1.000
    H33     H    0.37782   0.73968   0.14299   1.000
    H34     H    0.10406   0.90081   0.97722   1.000
    H35     H    0.11010   0.02346   0.93415   1.000
    H36     H    0.33822   0.09597   0.05899   1.000
    H37     H    0.34279   0.97692   0.10895   1.000
    H38     H    0.02252   0.07595   0.13551   1.000
    H39     H    0.94827   0.07201   0.25155   1.000
    H40     H    0.93330   0.31005   0.28765   1.000
    H41     H    0.89137   0.36805   0.10536   1.000
    H42     H    0.95214   0.28803   0.06501   1.000
    H43     H    0.92102   0.40314   0.23686   1.000
    H44     H    0.00435   0.44986   0.19066   1.000
    H45     H    0.34992   0.36054   0.59433   1.000
    H46     H    0.48577   0.27195   0.58222   1.000
    H47     H    0.56292   0.34454   0.39180   1.000
    H48     H    0.47401   0.55791   0.40666   1.000
    H49     H    0.39798   0.53591   0.47122   1.000
    H50     H    0.55784   0.42553   0.33814   1.000
    H51     H    0.48511   0.49111   0.30771   1.000
    H52     H    0.09075   0.29275   0.39782   1.000
    H53     H    0.07685   0.17209   0.44151   1.000
    H54     H    0.37792   0.14127   0.40481   1.000
    H55     H    0.37737   0.26028   0.35706   1.000
    H56     H    0.10393   0.09900   0.52276   1.000
    H57     H    0.11018   0.97638   0.56592   1.000
    H58     H    0.33802   0.90408   0.44100   1.000
    H59     H    0.34235   0.02308   0.39114   1.000
    H60     H    0.97747   0.07605   0.63000   1.000
    H61     H    0.05111   0.07177   0.75128   1.000
    H62     H    0.06544   0.30986   0.78831   1.000
    H63     H    0.10849   0.36860   0.60610   1.000
    H64     H    0.04810   0.28840   0.56552   1.000
    H65     H    0.07888   0.40305   0.73754   1.000
    H66     H    0.99584   0.44999   0.69122   1.000
    H67     H    0.65022   0.36063   0.09432   1.000
    H68     H    0.51423   0.27201   0.08218   1.000
    H69     H    0.43671   0.34455   0.89179   1.000
    H70     H    0.52600   0.55797   0.90655   1.000
    H71     H    0.60206   0.53595   0.97119   1.000
    H72     H    0.44183   0.42548   0.83799   1.000
    H73     H    0.51448   0.49114   0.80765   1.000
    H74     H    0.90901   0.29287   0.89784   1.000
    H75     H    0.92289   0.17226   0.94149   1.000
    H76     H    0.62169   0.14134   0.90471   1.000
    H77     H    0.62221   0.26039   0.85702   1.000
    H78     H    0.89598   0.09920   0.02272   1.000
    H79     H    0.88994   0.97655   0.06579   1.000
    H80     H    0.66179   0.90405   0.94097   1.000
    H81     H    0.65722   0.02310   0.89101   1.000
    H82     H    0.97754   0.92403   0.86446   1.000
    H83     H    0.05178   0.92798   0.74842   1.000
    H84     H    0.06677   0.68993   0.71233   1.000
    H85     H    0.10867   0.63189   0.89460   1.000
    H86     H    0.04795   0.71194   0.93495   1.000
    H87     H    0.07903   0.59684   0.76310   1.000
    H88     H    0.99570   0.55011   0.80929   1.000
    H89     H    0.65007   0.63949   0.40564   1.000
    H90     H    0.51419   0.72806   0.41774   1.000
    H91     H    0.43706   0.65548   0.60808   1.000
    H92     H    0.52604   0.44210   0.59325   1.000
    H93     H    0.60210   0.46415   0.52873   1.000
    H94     H    0.44214   0.57445   0.66179   1.000
    H95     H    0.51486   0.50887   0.69222   1.000
    H96     H    0.90925   0.70728   0.60222   1.000
    H97     H    0.92314   0.82790   0.55840   1.000
    H98     H    0.62208   0.85874   0.59517   1.000
    H99     H    0.62265   0.73978   0.64300   1.000
    C100    C    0.68784   0.17182   0.90276   1.000
    C101    C    0.68685   0.23936   0.87749   1.000
    C102    C    0.84203   0.05829   0.00305   1.000
    C103    C    0.83965   0.98996   0.02723   1.000
    H104    H    0.89604   0.90097   0.47710   1.000
    H105    H    0.88978   0.02358   0.43398   1.000
    H106    H    0.66197   0.09590   0.55873   1.000
    H107    H    0.65766   0.97692   0.60881   1.000
    C108    C    0.07198   0.80705   0.42149   1.000
    C109    C    0.01992   0.80407   0.35427   1.000
    C110    C    0.00245   0.87254   0.33133   1.000
    C111    C    0.96291   0.87519   0.26657   1.000
    C112    C    0.94108   0.80843   0.22336   1.000
    C113    C    0.89994   0.80850   0.15230   1.000
    C114    C    0.95470   0.74003   0.24692   1.000
    C115    C    0.99236   0.73687   0.31248   1.000
    C116    C    0.96238   0.65682   0.40211   1.000
    C117    C    0.02136   0.61100   0.44527   1.000
    C118    C    0.99343   0.59996   0.28370   1.000
    C119    C    0.06492   0.59419   0.22465   1.000
    C120    C    0.28706   0.55484   0.99280   1.000
    C121    C    0.37588   0.59874   0.00171   1.000
    C122    C    0.39515   0.64444   0.95121   1.000
    C123    C    0.47025   0.69450   0.95803   1.000
    C124    C    0.52983   0.69798   0.01560   1.000
    C125    C    0.61665   0.74701   0.02110   1.000
    C126    C    0.51324   0.65180   0.06560   1.000
    C127    C    0.43760   0.60104   0.06017   1.000
    C128    C    0.40951   0.47336   0.08482   1.000
    C129    C    0.32933   0.43585   0.11822   1.000
    C130    C    0.48412   0.56327   0.17398   1.000
    C131    C    0.45328   0.62028   0.23739   1.000
    O132    O    0.15194   0.77086   0.42108   1.000
    O133    O    0.04123   0.84619   0.47491   1.000
    O134    O    0.86005   0.86897   0.14099   1.000
    O135    O    0.90488   0.74939   0.10819   1.000
    O136    O    0.11017   0.60676   0.43870   1.000
    C137    C    0.15334   0.74239   0.10010   1.000
    C138    C    0.14604   0.81029   0.07533   1.000
    C139    C    0.22717   0.85492   0.07301   1.000
    C140    C    0.31220   0.82822   0.09720   1.000
    C141    C    0.31318   0.76070   0.12251   1.000
    C142    C    0.15800   0.94172   0.99689   1.000
    C143    C    0.16039   0.00000   0.97271   1.000
    C144    C    0.28822   0.05074   0.04278   1.000
    C145    C    0.29048   0.98390   0.06951   1.000
    C146    C    0.22473   0.92724   0.04646   1.000
    C147    C    0.07201   0.19265   0.07872   1.000
    C148    C    0.01976   0.19576   0.14579   1.000
    C149    C    0.00214   0.12739   0.16888   1.000
    C150    C    0.96228   0.12495   0.23351   1.000
    C151    C    0.94000   0.19181   0.27636   1.000
    C152    C    0.89848   0.19191   0.34718   1.000
    C153    C    0.95379   0.26009   0.25262   1.000
    C154    C    0.99193   0.26304   0.18723   1.000
    C155    C    0.96235   0.34280   0.09733   1.000
    C156    C    0.02131   0.38882   0.05440   1.000
    C157    C    0.99339   0.39996   0.21571   1.000
    C158    C    0.06479   0.40576   0.27496   1.000
    C159    C    0.28705   0.44519   0.50718   1.000
    C160    C    0.37579   0.40127   0.49830   1.000
    C161    C    0.39510   0.35552   0.54877   1.000
    C162    C    0.47013   0.30547   0.54197   1.000
    C163    C    0.52958   0.30202   0.48400   1.000
    C164    C    0.61636   0.25303   0.47891   1.000
    C165    C    0.51292   0.34822   0.43440   1.000
    C166    C    0.43737   0.39897   0.43986   1.000
    C167    C    0.40947   0.52666   0.41517   1.000
    C168    C    0.32932   0.56417   0.38168   1.000
    C169    C    0.48377   0.43673   0.32607   1.000
    C170    C    0.45279   0.37968   0.26265   1.000
    C171    C    0.15301   0.25750   0.39983   1.000
    C172    C    0.14571   0.18960   0.42466   1.000
    C173    C    0.22681   0.14498   0.42699   1.000
    C174    C    0.31179   0.17172   0.40282   1.000
    C175    C    0.31276   0.23924   0.37751   1.000
    C176    C    0.15784   0.05813   0.50311   1.000
    C177    C    0.16036   0.98983   0.52736   1.000
    C178    C    0.28802   0.94927   0.45736   1.000
    C179    C    0.29014   0.01607   0.43057   1.000
    C180    C    0.22444   0.07267   0.45350   1.000
    C181    C    0.92805   0.19287   0.57840   1.000
    C182    C    0.98009   0.19589   0.64567   1.000
    C183    C    0.99758   0.12742   0.66863   1.000
    C184    C    0.03714   0.12479   0.73338   1.000
    C185    C    0.05894   0.19156   0.77660   1.000
    C186    C    0.10008   0.19151   0.84757   1.000
    C187    C    0.04530   0.25995   0.75301   1.000
    C188    C    0.00000   0.26309   0.68746   1.000
    C189    C    0.03761   0.34313   0.59782   1.000
    C190    C    0.97867   0.38901   0.55468   1.000
    C191    C    0.00000   0.40001   0.71620   1.000
    C192    C    0.93506   0.40580   0.77526   1.000
    C193    C    0.71295   0.44525   0.00720   1.000
    C194    C    0.62413   0.40134   0.99828   1.000
    C195    C    0.60490   0.35560   0.04876   1.000
    C196    C    0.52980   0.30555   0.04190   1.000
    C197    C    0.47022   0.30205   0.98430   1.000
    C198    C    0.38340   0.25302   0.97888   1.000
    C199    C    0.48679   0.34825   0.93437   1.000
    C200    C    0.56243   0.39901   0.93980   1.000
    C201    C    0.59048   0.52670   0.91513   1.000
    C202    C    0.67067   0.56419   0.88170   1.000
    C203    C    0.51588   0.43676   0.82000   1.000
    C204    C    0.54675   0.37974   0.76260   1.000
    C205    C    0.84669   0.25765   0.89984   1.000
    C206    C    0.85399   0.18974   0.92465   1.000
    C207    C    0.77286   0.14511   0.92695   1.000
    C208    C    0.71180   0.94928   0.95717   1.000
    C209    C    0.70954   0.01612   0.93045   1.000
    C210    C    0.77530   0.07278   0.95349   1.000
    C211    C    0.92804   0.80734   0.92125   1.000
    C212    C    0.98029   0.80422   0.85418   1.000
    C213    C    0.99793   0.87259   0.83110   1.000
    C214    C    0.03777   0.87503   0.76646   1.000
    C215    C    0.06007   0.80817   0.72361   1.000
    C216    C    0.10156   0.80806   0.65279   1.000
    C217    C    0.04626   0.73989   0.74735   1.000
    C218    C    0.00000   0.73694   0.81275   1.000
    C219    C    0.03771   0.65717   0.90264   1.000
    C220    C    0.97872   0.61119   0.94559   1.000
    C221    C    0.00000   0.60002   0.78425   1.000
    C222    C    0.93525   0.59424   0.72500   1.000
    C223    C    0.71299   0.55491   0.49280   1.000
    C224    C    0.62422   0.59878   0.50168   1.000
    C225    C    0.60489   0.64451   0.45119   1.000
    C226    C    0.52985   0.69455   0.45799   1.000
    C227    C    0.47041   0.69800   0.51557   1.000
    C228    C    0.38363   0.74699   0.52106   1.000
    C229    C    0.48707   0.65181   0.56553   1.000
    C230    C    0.56263   0.60106   0.56011   1.000
    C231    C    0.59057   0.47337   0.58478   1.000
    C232    C    0.67072   0.43587   0.61827   1.000
    C233    C    0.51621   0.56326   0.67388   1.000
    C234    C    0.54714   0.62030   0.73731   1.000
    C235    C    0.84701   0.74253   0.60020   1.000
    C236    C    0.85429   0.81040   0.57532   1.000
    C237    C    0.77320   0.85503   0.57299   1.000
    C238    C    0.68822   0.82830   0.59717   1.000
    C239    C    0.68725   0.76081   0.62253   1.000
    C240    C    0.84215   0.94185   0.49682   1.000
    C241    C    0.83961   0.00000   0.47255   1.000
    C242    C    0.71196   0.05071   0.54256   1.000
    C243    C    0.70986   0.98392   0.56937   1.000
    C244    C    0.77555   0.92731   0.54636   1.000
    N245    N    0.00823   0.66614   0.33636   1.000
    N246    N    0.42344   0.55345   0.11127   1.000
    N247    N    0.23558   0.71743   0.12345   1.000
    N248    N    0.22426   0.06377   0.99490   1.000
    N249    N    0.00809   0.33366   0.16323   1.000
    N250    N    0.42320   0.44656   0.38874   1.000
    N251    N    0.23520   0.28249   0.37657   1.000
    N252    N    0.22420   0.93617   0.50522   1.000
    N253    N    0.99175   0.33381   0.66357   1.000
    N254    N    0.57656   0.44660   0.88870   1.000
    N255    N    0.76445   0.28263   0.87658   1.000
    N256    N    0.77577   0.93624   0.00504   1.000
    N257    N    0.99197   0.66632   0.83674   1.000
    N258    N    0.57681   0.55346   0.61122   1.000
    N259    N    0.76481   0.71756   0.62348   1.000
    N260    N    0.77578   0.06380   0.49469   1.000
    O261    O    0.98007   0.57792   0.49097   1.000
    O262    O    0.14704   0.62506   0.24042   1.000
    O263    O    0.04500   0.55953   0.16650   1.000
    O264    O    0.25506   0.52773   0.93272   1.000
    O265    O    0.23830   0.54472   0.04640   1.000
    O266    O    0.62129   0.79993   0.98607   1.000
    O267    O    0.68323   0.73089   0.06120   1.000
    O268    O    0.27588   0.47120   0.16420   1.000
    O269    O    0.32041   0.36614   0.09629   1.000
    O270    O    0.37162   0.65302   0.23635   1.000
    O271    O    0.50990   0.62834   0.28645   1.000
    O272    O    0.15208   0.22880   0.07932   1.000
    O273    O    0.04127   0.15351   0.02523   1.000
    O274    O    0.86002   0.13103   0.35897   1.000
    O275    O    0.90177   0.25149   0.39091   1.000
    O276    O    0.11013   0.39309   0.06112   1.000
    O277    O    0.98001   0.42203   0.00875   1.000
    O278    O    0.14688   0.37489   0.25935   1.000
    O279    O    0.04493   0.44039   0.33304   1.000
    O280    O    0.25516   0.47222   0.56725   1.000
    O281    O    0.23827   0.45544   0.45355   1.000
    O282    O    0.62119   0.20009   0.51392   1.000
    O283    O    0.68276   0.26919   0.43877   1.000
    O284    O    0.27578   0.52880   0.33561   1.000
    O285    O    0.32050   0.63389   0.40359   1.000
    O286    O    0.37105   0.34697   0.26362   1.000
    O287    O    0.50939   0.37157   0.21367   1.000
    O288    O    0.84811   0.22910   0.57881   1.000
    O289    O    0.95880   0.15369   0.52505   1.000
    O290    O    0.13998   0.13104   0.85897   1.000
    O291    O    0.09514   0.25062   0.89176   1.000
    O292    O    0.88985   0.39326   0.56125   1.000
    O293    O    0.01999   0.42212   0.50902   1.000
    O294    O    0.85293   0.37494   0.75950   1.000
    O295    O    0.95500   0.44045   0.83336   1.000
    O296    O    0.74498   0.47228   0.06729   1.000
    O297    O    0.76166   0.45547   0.95359   1.000
    O298    O    0.37875   0.20010   0.01391   1.000
    O299    O    0.31682   0.26913   0.93877   1.000
    O300    O    0.72412   0.52884   0.83570   1.000
    O301    O    0.67960   0.63391   0.90365   1.000
    O302    O    0.62841   0.34701   0.76365   1.000
    O303    O    0.49014   0.37166   0.71353   1.000
    O304    O    0.84796   0.77121   0.92064   1.000
    O305    O    0.95877   0.84649   0.97474   1.000
    O306    O    0.13999   0.86895   0.64098   1.000
    O307    O    0.09827   0.74848   0.60907   1.000
    O308    O    0.88990   0.60693   0.93887   1.000
    O309    O    0.02001   0.57799   0.99125   1.000
    O310    O    0.85317   0.62511   0.74062   1.000
    O311    O    0.95511   0.55961   0.66690   1.000
    O312    O    0.74485   0.52779   0.43277   1.000
    O313    O    0.76182   0.54479   0.54646   1.000
    O314    O    0.37882   0.79994   0.48600   1.000
    O315    O    0.31724   0.73082   0.56119   1.000
    O316    O    0.72427   0.47124   0.66433   1.000
    O317    O    0.67954   0.36615   0.59636   1.000
    O318    O    0.62887   0.65303   0.73637   1.000
    O319    O    0.49052   0.62839   0.78628   1.000
loop_
    _geom_bond_atom_site_label_1
    _geom_bond_atom_site_label_2
    _geom_bond_distance
    _geom_bond_site_symmetry_2
    _ccdc_geom_bond_type
    C121   C127      1.43252      .   S
    C121   C122      1.40855  1_554   S
    C121   C120      1.48084  1_554   S
    C102   H78       1.09015      .   S
    C102   C103      1.39019  1_545   S
    C102   C210      1.40470  1_554   S
    N256   C103      1.34783      .   S
    N256   Cd11      2.35436      .   S
    N256   C208      1.34732  1_554   S
    C193   O296      1.28331      .   S
    C193   O297      1.29144  1_554   S
    C193   C194      1.48085  1_554   S
    O277   Cd9       2.35759      .   S
    O277   C156      1.28929  1_655   S
    O298   C198      1.26156  1_554   S
    C124   C125      1.50770      .   S
    C124   C126      1.39995      .   S
    C124   C123      1.39864  1_554   S
    Cd9    O296      2.30478      .   S
    Cd9    O308      2.35923  1_554   S
    Cd9    O297      2.28761  1_554   S
    C125   O267      1.28602      .   S
    C125   O266      1.26161  1_554   S
    O273   C147      1.24726      .   S
    C103   H79       1.08976      .   S
    H26    C128      1.09527      .   S
    Cd11   O267      2.27973      .   S
    Cd11   O134      2.32311      .   S
    C196   C195      1.38786      .   S
    C196   H68       1.08801      .   S
    C196   C197      1.39902  1_554   S
    C144   H36       1.09045      .   S
    C144   C145      1.38941  1_545   S
    C144   N248      1.34737  1_554   S
    O265   Cd1       2.28731  1_554   S
    O265   C120      1.29114  1_554   S
    C146   C145      1.40492      .   S
    C146   C139      1.48035      .   S
    C146   C142      1.40476  1_554   S
    C195   H67       1.08894      .   S
    C195   C194      1.40854  1_554   S
    C156   O276      1.26300      .   S
    C156   C155      1.51912  1_455   S
    H30    C138      1.09006      .   S
    C127   C126      1.40216      .   S
    C127   N246      1.42974      .   S
    O276   Cd1       2.35874  1_554   S
    H42    C155      1.09985      .   S
    C126   H24       1.08655      .   S
    C145   H37       1.08899      .   S
    C139   C138      1.40673      .   S
    C139   C140      1.40373      .   S
    C138   C137      1.39170      .   S
    C147   O272      1.30579      .   S
    C147   C148      1.49926      .   S
    O272   Cd4       2.26187      .   S
    C128   H25       1.09900      .   S
    C128   N246      1.47497      .   S
    C128   C129      1.51915      .   S
    H31    C140      1.08877      .   S
    O269   C129      1.27463      .   S
    O269   Cd4       2.19689      .   S
    C140   C141      1.38671      .   S
    C155   H41       1.10382      .   S
    C155   N249      1.47279  1_655   S
    C137   H29       1.09119      .   S
    C137   N247      1.35123      .   S
    O135   C113      1.26868      .   S
    N246   Cd2       2.54404      .   S
    N246   C130      1.48361      .   S
    C129   O268      1.27013      .   S
    C141   N247      1.34882      .   S
    C141   H33       1.08892      .   S
    N247   Cd2       2.38077      .   S
    H38    C149      1.09044      .   S
    O134   C113      1.27998      .   S
    C148   C149      1.40268      .   S
    C148   C154      1.41115  1_455   S
    Cd4    O278      2.25149      .   S
    C113   C112      1.50571      .   S
    Cd2    O268      2.35420      .   S
    Cd2    O270      2.21912      .   S
    H27    C130      1.09853      .   S
    N249   C154      1.44525  1_455   S
    N249   C157      1.46908  1_455   S
    O263   C119      1.24319      .   S
    C149   C150      1.39106  1_455   S
    C130   H28       1.09810      .   S
    C130   C131      1.54931      .   S
    C154   C153      1.39664      .   S
    H44    C157      1.10218  1_455   S
    H17    C114      1.08674      .   S
    O287   C170      1.23979      .   S
    C157   H43       1.10186      .   S
    C157   C158      1.52688  1_655   S
    C112   C114      1.39850      .   S
    C112   C111      1.39788      .   S
    C119   O262      1.30372      .   S
    C119   C118      1.52653  1_455   S
    C150   H39       1.08847      .   S
    C150   C151      1.39799      .   S
    O270   C131      1.29905      .   S
    C131   O271      1.23975      .   S
    O262   Cd0       2.25163      .   S
    C114   C115      1.39668      .   S
    H16    C111      1.08840      .   S
    C153   C151      1.39846      .   S
    C153   H40       1.08666      .   S
    O278   C158      1.30382      .   S
    H20    C118      1.10174      .   S
    C170   O286      1.29922      .   S
    C170   C169      1.54928      .   S
    O286   Cd6       2.21993      .   S
    C111   C110      1.39104  1_655   S
    C158   O279      1.24241      .   S
    C151   C152      1.50425      .   S
    C118   H21       1.10236  1_655   S
    C118   N245      1.46930  1_655   S
    H51    C169      1.09804      .   S
    C115   N245      1.44544  1_655   S
    C115   C109      1.41122  1_655   S
    C169   H50       1.09852      .   S
    C169   N250      1.48371      .   S
    C110   C109      1.40274      .   S
    C110   H15       1.09043      .   S
    O284   Cd6       2.35509      .   S
    O284   C168      1.27060      .   S
    N245   C116      1.47289  1_455   S
    Cd6    N251      2.38196      .   S
    Cd6    N250      2.54216      .   S
    C152   O274      1.28052      .   S
    C152   O275      1.26971      .   S
    Cd0    O285      2.19699      .   S
    Cd0    O132      2.26336      .   S
    C109   C108      1.49922      .   S
    H55    C175      1.08885      .   S
    O274   Cd7       2.32269      .   S
    N251   C175      1.34880      .   S
    N251   C171      1.35078      .   S
    C175   C174      1.38674      .   S
    C168   O285      1.27468      .   S
    C168   C167      1.51910      .   S
    N250   C167      1.47505      .   S
    N250   C166      1.42990      .   S
    O275   Cd7       2.54283      .   S
    H59    C179      1.08905      .   S
    H47    C165      1.08707      .   S
    H18    C116      1.10382      .   S
    H52    C171      1.09106      .   S
    C171   C172      1.39238      .   S
    C116   H19       1.09976      .   S
    C116   C117      1.51924  1_655   S
    C174   H54       1.08880      .   S
    C174   C173      1.40376      .   S
    H89    C225      1.08889      .   S
    H48    C167      1.09902      .   S
    C167   H49       1.09528      .   S
    H90    C226      1.08724      .   S
    O132   C108      1.30580      .   S
    C108   O133      1.24722      .   S
    C172   C173      1.40681      .   S
    C172   H53       1.09007      .   S
    C173   C180      1.47973      .   S
    C179   C180      1.40463      .   S
    C179   C178      1.38942  1_545   S
    O312   Cd13      2.30388      .   S
    O312   C223      1.28289      .   S
    H105   C241      1.16316      .   S
    C165   C166      1.40202      .   S
    C165   C163      1.39396      .   S
    O136   C117      1.26300      .   S
    O136   Cd5       2.35781      .   S
    O283   Cd7       2.27797      .   S
    O283   C164      1.28595      .   S
    C166   C160      1.43267      .   S
    H58    C178      1.09114      .   S
    C117   O261      1.28923  1_455   S
    C225   C226      1.38794      .   S
    C225   C224      1.40854      .   S
    C180   C176      1.40578      .   S
    O281   C159      1.29127      .   S
    O281   Cd5       2.28814      .   S
    C178   N252      1.34729      .   S
    C226   C227      1.39918      .   S
    Cd7    N260      2.35557      .   S
    C241   N260      1.47718      .   S
    C241   C240      1.21933  1_545   S
    H104   C240      1.09058      .   S
    C164   C163      1.50793      .   S
    C164   O282      1.26169      .   S
    Cd13   O261      2.35740      .   S
    Cd13   O313      2.28833      .   S
    Cd13   O292      2.35746      .   S
    C163   C162      1.40535      .   S
    O314   C228      1.26247      .   S
    C223   C224      1.48092      .   S
    C223   O313      1.29154      .   S
    N260   C242      1.34734      .   S
    C240   C244      1.40471      .   S
    C160   C159      1.48095      .   S
    C160   C161      1.40848      .   S
    C224   C230      1.43260      .   S
    C176   H56       1.09024      .   S
    C176   C177      1.39034  1_545   S
    N252   C177      1.34777      .   S
    N252   Cd32      2.35507      .   S
    C159   O280      1.28331      .   S
    O293   Cd5       2.35797      .   S
    O293   C190      1.28909  1_455   S
    C227   C228      1.50768      .   S
    C227   C229      1.39946      .   S
    Cd5    O280      2.30423      .   S
    C228   O315      1.28588      .   S
    O289   C181      1.24652      .   S
    C177   H57       1.08982      .   S
    H93    C231      1.09534      .   S
    Cd32   O315      2.27822      .   S
    Cd32   O307      2.54381      .   S
    Cd32   O306      2.32377      .   S
    C162   C161      1.38794      .   S
    C162   H46       1.08734      .   S
    C242   H106      1.09049      .   S
    C242   C243      1.38939  1_545   S
    C244   C243      1.40493      .   S
    C244   C237      1.48047      .   S
    C161   H45       1.08905      .   S
    C190   O292      1.26308      .   S
    C190   C189      1.51938  1_655   S
    H97    C236      1.09042      .   S
    C230   C229      1.40201      .   S
    C230   N258      1.42988      .   S
    H64    C189      1.09985      .   S
    C229   H91       1.08642      .   S
    C243   H107      1.08907      .   S
    C237   C236      1.40682      .   S
    C237   C238      1.40377      .   S
    C236   C235      1.39230      .   S
    C181   O288      1.30583      .   S
    C181   C182      1.49993      .   S
    O288   Cd8       2.26306      .   S
    C231   H92       1.09898      .   S
    C231   N258      1.47499      .   S
    C231   C232      1.51907      .   S
    H98    C238      1.08880      .   S
    O317   C232      1.27472      .   S
    O317   Cd8       2.19626      .   S
    C238   C239      1.38666      .   S
    C189   H63       1.10378      .   S
    C189   N253      1.47292  1_455   S
    C235   H96       1.09108      .   S
    C235   N259      1.35079      .   S
    O307   C216      1.26972      .   S
    N258   Cd14      2.54230      .   S
    N258   C233      1.48384      .   S
    C232   O316      1.27056      .   S
    C239   N259      1.34878      .   S
    C239   H99       1.08891      .   S
    N259   Cd14      2.38188      .   S
    H60    C183      1.13978      .   S
    O306   C216      1.28056      .   S
    C182   C183      1.40276      .   S
    C182   C188      1.38553  1_655   S
    Cd8    O294      2.25281      .   S
    C216   C215      1.50406      .   S
    Cd14   O316      2.35489      .   S
    Cd14   O318      2.21964      .   S
    H94    C233      1.09855      .   S
    N253   C188      1.43263  1_655   S
    N253   C191      1.45892  1_655   S
    O311   C222      1.24267      .   S
    C183   C184      1.39091  1_655   S
    C233   H95       1.09801      .   S
    C233   C234      1.54918      .   S
    C188   C187      1.44099      .   S
    H66    C191      1.09328  1_655   S
    H84    C217      1.08656      .   S
    O303   C204      1.23976      .   S
    C191   H65       1.18810      .   S
    C191   C192      1.46700  1_455   S
    C215   C217      1.39847      .   S
    C215   C214      1.39807      .   S
    C222   O310      1.30383      .   S
    C222   C221      1.46652  1_655   S
    C184   H61       1.08847      .   S
    C184   C185      1.39798      .   S
    O318   C234      1.29921      .   S
    C234   O319      1.23984      .   S
    O310   Cd12      2.25065      .   S
    C217   C218      1.44507      .   S
    H83    C214      1.08849      .   S
    C187   C185      1.39861      .   S
    C187   H62       1.08665      .   S
    O294   C192      1.30370      .   S
    C204   O302      1.29903      .   S
    C204   C203      1.46979      .   S
    H87    C221      1.18975      .   S
    O302   Cd10      2.21926      .   S
    C214   C213      1.39107  1_455   S
    C192   O295      1.24241      .   S
    C185   C186      1.50413      .   S
    C221   H88       1.09291  1_455   S
    C221   N257      1.45870  1_455   S
    H73    C203      1.04881      .   S
    C218   N257      1.43161  1_455   S
    C218   C212      1.38335  1_455   S
    C203   H72       1.13275      .   S
    C203   N254      1.57974      .   S
    C213   C212      1.40264      .   S
    C213   H82       1.09039      .   S
    O300   Cd10      2.35417      .   S
    O300   C202      1.27048      .   S
    N257   C219      1.47280  1_655   S
    Cd10   N255      2.38099      .   S
    Cd10   N254      2.54437      .   S
    C186   O290      1.28050      .   S
    C186   O291      1.26956      .   S
    Cd12   O301      2.19743      .   S
    Cd12   O304      2.26219      .   S
    C212   C211      1.49929      .   S
    H77    C101      1.08890      .   S
    O290   Cd3       2.32299      .   S
    N255   C101      1.34882      .   S
    N255   C205      1.35070      .   S
    C101   C100      1.38666      .   S
    C202   O301      1.27472      .   S
    C202   C201      1.51940      .   S
    N254   C201      1.47497      .   S
    N254   C200      1.42967      .   S
    H81    C209      1.08909      .   S
    H69    C199      1.08632      .   S
    H85    C219      1.10384      .   S
    H74    C205      1.09102      .   S
    C205   C206      1.39238      .   S
    C219   H86       1.09985      .   S
    C219   C220      1.51915  1_455   S
    C100   H76       1.08880      .   S
    C100   C207      1.40375      .   S
    H22    C122      1.08897      .   S
    H70    C201      1.09903      .   S
    C201   H71       1.09524      .   S
    H23    C123      1.08721      .   S
    O304   C211      1.30579      .   S
    C211   O305      1.24722      .   S
    C206   C207      1.40672      .   S
    C206   H75       1.09005      .   S
    C207   C210      1.48039      .   S
    C209   C210      1.40491      .   S
    C209   C208      1.38933  1_545   S
    O264   Cd1       2.30488      .   S
    O264   C120      1.28331      .   S
    H35    C143      1.16230      .   S
    C199   C200      1.40221      .   S
    C199   C197      1.39911      .   S
    O299   Cd3       2.27966      .   S
    O299   C198      1.28613      .   S
    O308   C220      1.26296      .   S
    C200   C194      1.43271      .   S
    H80    C208      1.09043      .   S
    C220   O309      1.28920  1_655   S
    C122   C123      1.38785      .   S
    Cd3    N248      2.35436      .   S
    C143   N248      1.47608      .   S
    C143   C142      1.22051  1_545   S
    H34    C142      1.09014      .   S
    C198   C197      1.50783      .   S
    Cd1    O309      2.35729      .   S
    O132   Cd32      2.42516      .   S
    O136   Cd0       2.45575      .   S
    O261   Cd5       2.39077  1_655   S
    O262   Cd2       2.26961      .   S
    O265   Cd2       2.34301      .   S
    O272   Cd3       2.42702  1_554   S
    O276   Cd4       2.45603      .   S
    O277   Cd1       2.38933  1_654   S
    O278   Cd6       2.26859      .   S
    O281   Cd6       2.34302      .   S
    O288   Cd7       2.42574      .   S
    O292   Cd8       2.45498      .   S
    O293   Cd13      2.39125  1_455   S
    O294   Cd10      2.26981      .   S
    O297   Cd10      2.34352      .   S
    O304   Cd11      2.42692  1_556   S
    O308   Cd12      2.45637      .   S
    O309   Cd9       2.38910  1_456   S
    O310   Cd14      2.26857      .   S
    O313   Cd14      2.34271      .   S
