# CIF file generated by openbabel 2.4.90, see http://openbabel.sf.net
data_I
_chemical_name_common ''
_cell_length_a 14.132
_cell_length_b 18.093
_cell_length_c 19.553
_cell_angle_alpha 98.827
_cell_angle_beta 90.064
_cell_angle_gamma 90.027
_space_group_name_H-M_alt 'P 1'
_space_group_name_Hall 'P 1'
loop_
    _symmetry_equiv_pos_as_xyz
    x,y,z
loop_
    _atom_site_label
    _atom_site_type_symbol
    _atom_site_fract_x
    _atom_site_fract_y
    _atom_site_fract_z
    _atom_site_occupancy
    N0      N    0.99324   0.72205   0.31097   1.000
    N1      N    0.99287   0.27789   0.18876   1.000
    N2      N    0.22765   0.89059   0.05965   1.000
    N3      N    0.43984   0.59182   0.07177   1.000
    N4      N    0.56034   0.59184   0.57174   1.000
    N5      N    0.56018   0.40822   0.92798   1.000
    N6      N    0.00665   0.72210   0.81121   1.000
    N7      N    0.43966   0.40818   0.42821   1.000
    N8      N    0.22738   0.10883   0.44038   1.000
    N9      N    0.77237   0.10894   0.94031   1.000
    N10     N    0.77261   0.89066   0.55957   1.000
    N11     N    0.00626   0.27792   0.68878   1.000
    Zr12    Zr   0.80702   0.33510   0.64965   1.000
    O13     O    0.72942   0.40317   0.62351   1.000
    Zr14    Zr   0.73556   0.39960   0.83886   1.000
    O15     O    0.74838   0.31232   0.86894   1.000
    O16     O    0.81791   0.36610   0.79142   1.000
    Zr17    Zr   0.26448   0.60045   0.16113   1.000
    O18     O    0.25166   0.68761   0.13105   1.000
    O19     O    0.18199   0.63393   0.20850   1.000
    Zr20    Zr   0.19312   0.33511   0.14973   1.000
    O21     O    0.27071   0.40317   0.12356   1.000
    Zr22    Zr   0.73578   0.60052   0.66114   1.000
    O23     O    0.81817   0.63398   0.70859   1.000
    O24     O    0.74862   0.68768   0.63104   1.000
    Zr25    Zr   0.12604   0.47632   0.98006   1.000
    O26     O    0.08294   0.55048   0.93925   1.000
    Zr27    Zr   0.20884   0.81634   0.53697   1.000
    O28     O    0.31026   0.74952   0.54869   1.000
    O29     O    0.14783   0.78708   0.46598   1.000
    O30     O    0.21539   0.90444   0.50885   1.000
    Zr31    Zr   0.19300   0.66485   0.35020   1.000
    O32     O    0.27060   0.59681   0.37638   1.000
    Zr33    Zr   0.26419   0.39954   0.33889   1.000
    O34     O    0.25136   0.31223   0.36897   1.000
    O35     O    0.18169   0.36604   0.29141   1.000
    Zr36    Zr   0.79114   0.18364   0.46290   1.000
    O37     O    0.68972   0.25047   0.45121   1.000
    O38     O    0.78459   0.09542   0.49104   1.000
    O39     O    0.85204   0.21289   0.53386   1.000
    Zr40    Zr   0.87380   0.47630   0.48010   1.000
    O41     O    0.91694   0.55044   0.43918   1.000
    Zr42    Zr   0.79158   0.81645   0.03671   1.000
    O43     O    0.85240   0.78720   0.96583   1.000
    O44     O    0.85056   0.79941   0.11831   1.000
    O45     O    0.69010   0.74960   0.04854   1.000
    O46     O    0.78480   0.90454   0.00865   1.000
    Zr47    Zr   0.87399   0.52373   0.02000   1.000
    O48     O    0.91696   0.44956   0.06078   1.000
    Zr49    Zr   0.20845   0.18357   0.96324   1.000
    O50     O    0.14751   0.21280   0.03413   1.000
    O51     O    0.21523   0.09535   0.99130   1.000
    O52     O    0.14935   0.20059   0.88159   1.000
    O53     O    0.30993   0.25043   0.95137   1.000
    Zr54    Zr   0.80696   0.66488   0.85020   1.000
    O55     O    0.72934   0.59684   0.87633   1.000
    Zr56    Zr   0.12623   0.52380   0.51994   1.000
    O57     O    0.08296   0.44962   0.56079   1.000
    O58     O    0.21957   0.51269   0.00418   1.000
    O59     O    0.08263   0.41812   0.03909   1.000
    O60     O    0.85279   0.20816   0.38337   1.000
    O61     O    0.91706   0.41813   0.53915   1.000
    O62     O    0.14708   0.79182   0.61654   1.000
    O63     O    0.91728   0.58191   0.96094   1.000
    O64     O    0.68386   0.40737   0.86383   1.000
    O65     O    0.78046   0.48737   0.99580   1.000
    O66     O    0.78038   0.51269   0.50420   1.000
    O67     O    0.08284   0.58193   0.46081   1.000
    O68     O    0.31618   0.59269   0.13609   1.000
    O69     O    0.13629   0.32178   0.16137   1.000
    O70     O    0.86473   0.32237   0.65513   1.000
    O71     O    0.13516   0.67759   0.34471   1.000
    O72     O    0.31592   0.40731   0.36391   1.000
    O73     O    0.21965   0.48740   0.49581   1.000
    O74     O    0.86364   0.67821   0.83858   1.000
    O75     O    0.68407   0.59274   0.63610   1.000
loop_
    _geom_bond_atom_site_label_1
    _geom_bond_atom_site_label_2
    _geom_bond_distance
    _geom_bond_site_symmetry_2
    _ccdc_geom_bond_type
    Zr12   O13       1.78156      .   S
    N4     O13       4.41029      .   S
    Zr14   O15       1.77708      .   S
    N9     O15       4.14480      .   S
    Zr14   O16       1.55326      .   S
    N11    O16       3.56253  1_455   S
    Zr17   O18       1.77485      .   S
    N2     O18       4.13823      .   S
    Zr17   O19       1.55393      .   S
    N0     O19       3.56471  1_655   S
    Zr20   O21       1.78153      .   S
    N3     O21       4.41000      .   S
    Zr22   O23       1.55170      .   S
    N6     O23       3.55870  1_455   S
    Zr22   O24       1.77523      .   S
    N10    O24       4.13887      .   S
    Zr25   O26       1.77090      .   S
    N6     O26       4.41071      .   S
    Zr27   O28       1.91159      .   S
    N4     O28       4.60785      .   S
    Zr27   O29       1.64972      .   S
    N0     O29       3.77258  1_655   S
    Zr27   O30       1.76656      .   S
    N8     O30       4.12509  1_545   S
    Zr31   O32       1.78143      .   S
    N7     O32       4.40987      .   S
    Zr33   O34       1.77742      .   S
    N8     O34       4.14539      .   S
    Zr33   O35       1.55315      .   S
    N1     O35       3.56303  1_655   S
    Zr36   O37       1.91158      .   S
    N7     O37       4.60791      .   S
    Zr36   O38       1.76888      .   S
    N10    O38       4.13178  1_565   S
    Zr36   O39       1.64847      .   S
    N11    O39       3.76823  1_455   S
    Zr40   O41       1.77233      .   S
    N0     O41       4.41354      .   S
    Zr42   O43       1.64849  1_554   S
    N6     O43       3.76876  1_455   S
    Zr42   O44       1.86638      .   S
    N0     O44       4.67115      .   S
    Zr42   O45       1.91259      .   S
    N3     O45       4.61034      .   S
    Zr42   O46       1.76612      .   S
    N9     O46       4.12418  1_546   S
    Zr47   O48       1.77027      .   S
    N1     O48       4.40930      .   S
    Zr49   O50       1.64950  1_556   S
    N1     O50       3.77205  1_655   S
    Zr49   O51       1.76827      .   S
    N2     O51       4.13063  1_564   S
    Zr49   O52       1.86799      .   S
    N11    O52       4.67584      .   S
    Zr49   O53       1.91284      .   S
    N5     O53       4.61100      .   S
    Zr54   O55       1.78111      .   S
    N5     O55       4.40883      .   S
    Zr56   O57       1.77266      .   S
    N11    O57       4.41337      .   S
    Zr25   O58       1.51817  1_556   S
    N3     O58       3.59067      .   S
    Zr25   O59       1.78658  1_556   S
    N1     O59       4.34671  1_655   S
    Zr36   O60       1.89430      .   S
    N1     O60       4.63448      .   S
    N11    O61       4.34253  1_455   S
    Zr40   O61       1.78509      .   S
    N6     O62       4.63763      .   S
    Zr27   O62       1.89562      .   S
    N6     O63       4.34540  1_455   S
    Zr47   O63       1.78610  1_554   S
    N5     O64       2.15110      .   S
    Zr14   O64       0.87860      .   S
    N5     O65       3.59219      .   S
    Zr47   O65       1.51866  1_554   S
    Zr40   O66       1.51839      .   S
    N4     O66       3.59131      .   S
    N0     O67       4.34618  1_655   S
    Zr56   O67       1.78639      .   S
    N3     O68       2.15295      .   S
    Zr17   O68       0.87912      .   S
    N1     O69       2.27085  1_655   S
    Zr20   O69       0.87860      .   S
    Zr12   O70       0.85853      .   S
    N11    O70       2.28945  1_455   S
    Zr31   O71       0.86037      .   S
    N0     O71       2.29485  1_655   S
    N7     O72       2.15130      .   S
    Zr33   O72       0.87832      .   S
    N7     O73       3.59179      .   S
    Zr56   O73       1.51857      .   S
    Zr54   O74       0.87667      .   S
    N6     O74       2.26547  1_455   S
    Zr22   O75       0.87847      .   S
    N4     O75       2.15176      .   S
