# CIF file generated by openbabel 2.4.90, see http://openbabel.sf.net
data_I
_chemical_name_common ''
_cell_length_a 14.132
_cell_length_b 18.093
_cell_length_c 19.553
_cell_angle_alpha 98.827
_cell_angle_beta 90.064
_cell_angle_gamma 90.027
_space_group_name_H-M_alt 'P 1'
_space_group_name_Hall 'P 1'
loop_
    _symmetry_equiv_pos_as_xyz
    x,y,z
loop_
    _atom_site_label
    _atom_site_type_symbol
    _atom_site_fract_x
    _atom_site_fract_y
    _atom_site_fract_z
    _atom_site_occupancy
    N0      N    0.99324   0.72205   0.31097   1.000
    N1      N    0.99287   0.27789   0.18876   1.000
    N2      N    0.22765   0.89059   0.05965   1.000
    N3      N    0.43984   0.59182   0.07177   1.000
    N4      N    0.56034   0.59184   0.57174   1.000
    N5      N    0.56018   0.40822   0.92798   1.000
    N6      N    0.00665   0.72210   0.81121   1.000
    N7      N    0.43966   0.40818   0.42821   1.000
    N8      N    0.22738   0.10883   0.44038   1.000
    N9      N    0.77237   0.10894   0.94031   1.000
    N10     N    0.77261   0.89066   0.55957   1.000
    N11     N    0.00626   0.27792   0.68878   1.000
    Zr12    Zr   0.80702   0.33510   0.64965   1.000
    O13     O    0.86257   0.32578   0.67316   1.000
    O14     O    0.86719   0.32807   0.64838   1.000
    O15     O    0.86197   0.30755   0.65058   1.000
    O16     O    0.72942   0.40317   0.62351   1.000
    Zr17    Zr   0.73556   0.39960   0.83886   1.000
    O18     O    0.67832   0.39518   0.85174   1.000
    O19     O    0.74838   0.31232   0.86894   1.000
    O20     O    0.81791   0.36610   0.79142   1.000
    O21     O    0.67184   0.40763   0.86737   1.000
    O22     O    0.69029   0.41791   0.86074   1.000
    O23     O    0.69498   0.40874   0.87548   1.000
    Zr24    Zr   0.26448   0.60045   0.16113   1.000
    O25     O    0.30505   0.59133   0.12445   1.000
    O26     O    0.32172   0.60487   0.14819   1.000
    O27     O    0.30975   0.58214   0.13917   1.000
    O28     O    0.32819   0.59242   0.13256   1.000
    O29     O    0.25166   0.68761   0.13105   1.000
    O30     O    0.18199   0.63393   0.20850   1.000
    Zr31    Zr   0.19312   0.33511   0.14973   1.000
    O32     O    0.27071   0.40317   0.12356   1.000
    O33     O    0.13728   0.32578   0.17319   1.000
    O34     O    0.13268   0.32805   0.14841   1.000
    O35     O    0.13793   0.30751   0.15069   1.000
    Zr36    Zr   0.73578   0.60052   0.66114   1.000
    O37     O    0.81817   0.63398   0.70859   1.000
    O38     O    0.74862   0.68768   0.63104   1.000
    O39     O    0.67205   0.59247   0.63255   1.000
    O40     O    0.67856   0.60491   0.64819   1.000
    O41     O    0.69518   0.59138   0.62445   1.000
    O42     O    0.69048   0.58219   0.63919   1.000
    Zr43    Zr   0.12604   0.47632   0.98006   1.000
    O44     O    0.07449   0.41993   0.03582   1.000
    O45     O    0.21853   0.51375   0.01128   1.000
    O46     O    0.22062   0.51162   0.99707   1.000
    O47     O    0.09076   0.41631   0.04237   1.000
    O48     O    0.08294   0.55048   0.93925   1.000
    Zr49    Zr   0.20884   0.81634   0.53697   1.000
    O50     O    0.14969   0.79935   0.61853   1.000
    O51     O    0.31026   0.74952   0.54869   1.000
    O52     O    0.14447   0.78429   0.61454   1.000
    O53     O    0.14783   0.78708   0.46598   1.000
    O54     O    0.21539   0.90444   0.50885   1.000
    Zr55    Zr   0.19300   0.66485   0.35020   1.000
    O56     O    0.13270   0.67189   0.35145   1.000
    O57     O    0.13792   0.69240   0.34925   1.000
    O58     O    0.13731   0.67418   0.32667   1.000
    O59     O    0.27060   0.59681   0.37638   1.000
    Zr60    Zr   0.26419   0.39954   0.33889   1.000
    O61     O    0.32141   0.39513   0.35181   1.000
    O62     O    0.30482   0.40869   0.37555   1.000
    O63     O    0.25136   0.31223   0.36897   1.000
    O64     O    0.18169   0.36604   0.29141   1.000
    O65     O    0.30951   0.41786   0.36081   1.000
    O66     O    0.32793   0.40758   0.36745   1.000
    Zr67    Zr   0.79114   0.18364   0.46290   1.000
    O68     O    0.68972   0.25047   0.45121   1.000
    O69     O    0.85540   0.21568   0.38537   1.000
    O70     O    0.78459   0.09542   0.49104   1.000
    O71     O    0.85204   0.21289   0.53386   1.000
    O72     O    0.85018   0.20063   0.38137   1.000
    Zr73    Zr   0.87380   0.47630   0.48010   1.000
    O74     O    0.92519   0.41993   0.53589   1.000
    O75     O    0.90892   0.41633   0.54241   1.000
    O76     O    0.77932   0.51162   0.49709   1.000
    O77     O    0.91694   0.55044   0.43918   1.000
    O78     O    0.78144   0.51375   0.51130   1.000
    Zr79    Zr   0.79158   0.81645   0.03671   1.000
    O80     O    0.85240   0.78720   0.96583   1.000
    O81     O    0.85056   0.79941   0.11831   1.000
    O82     O    0.69010   0.74960   0.04854   1.000
    O83     O    0.78480   0.90454   0.00865   1.000
    Zr84    Zr   0.87399   0.52373   0.02000   1.000
    O85     O    0.92541   0.58011   0.96421   1.000
    O86     O    0.90915   0.58372   0.95766   1.000
    O87     O    0.91696   0.44956   0.06078   1.000
    O88     O    0.78150   0.48632   0.98869   1.000
    O89     O    0.77941   0.48842   0.00291   1.000
    Zr90    Zr   0.20845   0.18357   0.96324   1.000
    O91     O    0.14751   0.21280   0.03413   1.000
    O92     O    0.21523   0.09535   0.99130   1.000
    O93     O    0.14935   0.20059   0.88159   1.000
    O94     O    0.30993   0.25043   0.95137   1.000
    Zr95    Zr   0.80696   0.66488   0.85020   1.000
    O96     O    0.86266   0.67421   0.82676   1.000
    O97     O    0.86201   0.69247   0.84926   1.000
    O98     O    0.86725   0.67194   0.85154   1.000
    O99     O    0.72934   0.59684   0.87633   1.000
    Zr100   Zr   0.12623   0.52380   0.51994   1.000
    O101    O    0.22070   0.48845   0.50292   1.000
    O102    O    0.08296   0.44962   0.56079   1.000
    O103    O    0.09097   0.58373   0.45754   1.000
    O104    O    0.07471   0.58013   0.46408   1.000
    O105    O    0.21859   0.48635   0.48871   1.000
loop_
    _geom_bond_atom_site_label_1
    _geom_bond_atom_site_label_2
    _geom_bond_distance
    _geom_bond_site_symmetry_2
    _ccdc_geom_bond_type
    Zr12   O13       0.93762      .   S
    N11    O13       2.24682  1_455   S
    Zr12   O14       0.85956      .   S
    N11    O14       2.35129  1_455   S
    Zr12   O15       0.92452      .   S
    N11    O15       2.26369  1_455   S
    Zr12   O16       1.78156      .   S
    N4     O16       4.41029      .   S
    Zr17   O18       0.85482      .   S
    N5     O18       2.22790      .   S
    Zr17   O19       1.77708      .   S
    N9     O19       4.14480      .   S
    Zr17   O20       1.55326      .   S
    N11    O20       3.56253  1_455   S
    Zr17   O21       1.05790      .   S
    N5     O21       1.97359      .   S
    Zr17   O22       0.81212      .   S
    N5     O22       2.28377      .   S
    Zr17   O23       0.91306      .   S
    N5     O23       2.16566      .   S
    Zr24   O25       0.91378      .   S
    N3     O25       2.16720      .   S
    Zr24   O26       0.85506      .   S
    N3     O26       2.23003      .   S
    Zr24   O27       0.81268      .   S
    N3     O27       2.28553      .   S
    Zr24   O28       1.05839      .   S
    N3     O28       1.97550      .   S
    Zr24   O29       1.77485      .   S
    N2     O29       4.13823      .   S
    Zr24   O30       1.55393      .   S
    N0     O30       3.56471  1_655   S
    Zr31   O32       1.78153      .   S
    N3     O32       4.41000      .   S
    Zr31   O33       0.94134      .   S
    N1     O33       2.25579  1_655   S
    Zr31   O34       0.86326      .   S
    N1     O34       2.36039  1_655   S
    Zr31   O35       0.92761      .   S
    N1     O35       2.27343  1_655   S
    Zr36   O37       1.55170      .   S
    N6     O37       3.55870  1_455   S
    Zr36   O38       1.77523      .   S
    N10    O38       4.13887      .   S
    Zr36   O39       1.05770      .   S
    N4     O39       1.97434      .   S
    Zr36   O40       0.85452      .   S
    N4     O40       2.22880      .   S
    Zr36   O41       0.91311      .   S
    N4     O41       2.16609      .   S
    Zr36   O42       0.81212      .   S
    N4     O42       2.28434      .   S
    Zr43   O44       1.76155  1_556   S
    N1     O44       4.38644  1_655   S
    Zr43   O45       1.55237  1_556   S
    N3     O45       3.55692      .   S
    Zr43   O46       1.49599      .   S
    N3     O46       3.62937  1_554   S
    Zr43   O47       1.82172  1_556   S
    N1     O47       4.31103  1_655   S
    Zr43   O48       1.77090      .   S
    N6     O48       4.41071      .   S
    Zr49   O50       1.86807      .   S
    N6     O50       4.67594      .   S
    Zr49   O51       1.91159      .   S
    N4     O51       4.60785      .   S
    Zr49   O52       1.93305      .   S
    N6     O52       4.60330      .   S
    Zr49   O53       1.64972      .   S
    N0     O53       3.77258  1_655   S
    Zr49   O54       1.76656      .   S
    N8     O54       4.12509  1_545   S
    Zr55   O56       0.86139      .   S
    N0     O56       2.35659  1_655   S
    Zr55   O57       0.92610      .   S
    N0     O57       2.26930  1_655   S
    Zr55   O58       0.93943      .   S
    N0     O58       2.25206  1_655   S
    Zr55   O59       1.78143      .   S
    N7     O59       4.40987      .   S
    Zr60   O61       0.85441      .   S
    N7     O61       2.22831      .   S
    Zr60   O62       0.91296      .   S
    N7     O62       2.16564      .   S
    Zr60   O63       1.77742      .   S
    N8     O63       4.14539      .   S
    Zr60   O64       1.55315      .   S
    N1     O64       3.56303  1_655   S
    Zr60   O65       0.81197      .   S
    N7     O65       2.28389      .   S
    Zr60   O66       1.05752      .   S
    N7     O66       1.97388      .   S
    Zr67   O68       1.91158      .   S
    N7     O68       4.60791      .   S
    Zr67   O69       1.93171      .   S
    N1     O69       4.60019      .   S
    Zr67   O70       1.76888      .   S
    N10    O70       4.13178  1_565   S
    Zr67   O71       1.64847      .   S
    N11    O71       3.76823  1_455   S
    Zr67   O72       1.86678      .   S
    N1     O72       4.67276      .   S
    Zr73   O74       1.76002      .   S
    N11    O74       4.38237  1_455   S
    Zr73   O75       1.82027      .   S
    N11    O75       4.30674  1_455   S
    Zr73   O76       1.49612      .   S
    N4     O76       3.63007      .   S
    Zr73   O77       1.77233      .   S
    N0     O77       4.41354      .   S
    Zr73   O78       1.55267      .   S
    N4     O78       3.55748      .   S
    Zr79   O80       1.64849  1_554   S
    N6     O80       3.76876  1_455   S
    Zr79   O81       1.86638      .   S
    N0     O81       4.67115      .   S
    Zr79   O82       1.91259      .   S
    N3     O82       4.61034      .   S
    Zr79   O83       1.76612      .   S
    N9     O83       4.12418  1_546   S
    Zr84   O85       1.76092  1_554   S
    N6     O85       4.38530  1_455   S
    Zr84   O86       1.82139  1_554   S
    N6     O86       4.30954  1_455   S
    Zr84   O87       1.77027      .   S
    N1     O87       4.40930      .   S
    Zr84   O88       1.55298  1_554   S
    N5     O88       3.55829      .   S
    Zr84   O89       1.49635      .   S
    N5     O89       3.63104  1_556   S
    Zr90   O91       1.64950  1_556   S
    N1     O91       3.77205  1_655   S
    Zr90   O92       1.76827      .   S
    N2     O92       4.13063  1_564   S
    Zr90   O93       1.86799      .   S
    N11    O93       4.67584      .   S
    Zr90   O94       1.91284      .   S
    N5     O94       4.61100      .   S
    Zr95   O96       0.93951      .   S
    N6     O96       2.25038  1_455   S
    Zr95   O97       0.92589      .   S
    N6     O97       2.26796  1_455   S
    Zr95   O98       0.86125      .   S
    N6     O98       2.35531  1_455   S
    Zr95   O99       1.78111      .   S
    N5     O99       4.40883      .   S
    Zr100  O101      1.49628      .   S
    N7     O101      3.63058      .   S
    Zr100  O102      1.77266      .   S
    N11    O102      4.41337      .   S
    Zr100  O103      1.82151      .   S
    N0     O103      4.31049  1_655   S
    Zr100  O104      1.76138      .   S
    N0     O104      4.38593  1_655   S
    Zr100  O105      1.55287      .   S
    N7     O105      3.55794      .   S
