# CIF file generated by openbabel 2.4.90, see http://openbabel.sf.net
data_I
_chemical_name_common ''
_cell_length_a 15.345
_cell_length_b 15.371
_cell_length_c 22.383
_cell_angle_alpha 84.315
_cell_angle_beta 87.394
_cell_angle_gamma 81.031
_space_group_name_H-M_alt 'P 1'
_space_group_name_Hall 'P 1'
loop_
    _symmetry_equiv_pos_as_xyz
    x,y,z
loop_
    _atom_site_label
    _atom_site_type_symbol
    _atom_site_fract_x
    _atom_site_fract_y
    _atom_site_fract_z
    _atom_site_occupancy
    Zn0     Zn   0.30503   0.12565   0.19506   1.000
    Zn1     Zn   0.69998   0.89286   0.67943   1.000
    Zn2     Zn   0.69504   0.87436   0.80494   1.000
    Zn3     Zn   0.30004   0.10716   0.32057   1.000
    C4      C    0.30735   0.94419   0.26115   1.000
    C5      C    0.29415   0.28778   0.25743   1.000
    C6      C    0.13129   0.12941   0.25605   1.000
    C7      C    0.47467   0.10720   0.25633   1.000
    C8      C    0.69266   0.05583   0.73887   1.000
    C9      C    0.70589   0.71224   0.74257   1.000
    C10     C    0.86875   0.87057   0.74394   1.000
    C11     C    0.52535   0.89287   0.74367   1.000
    O12     O    0.43333   0.11145   0.30688   1.000
    O13     O    0.44144   0.09779   0.20665   1.000
    O14     O    0.16921   0.15152   0.20625   1.000
    O15     O    0.16897   0.10622   0.30598   1.000
    O16     O    0.32199   0.97191   0.31106   1.000
    O17     O    0.29653   0.00000   0.21120   1.000
    O18     O    0.27752   0.24476   0.30718   1.000
    O19     O    0.31191   0.25509   0.20726   1.000
    O20     O    0.56669   0.88854   0.69312   1.000
    O21     O    0.55860   0.90230   0.79334   1.000
    O22     O    0.83083   0.84848   0.79375   1.000
    O23     O    0.83105   0.89383   0.69402   1.000
    O24     O    0.67802   0.02810   0.68896   1.000
    O25     O    0.70353   0.00850   0.78881   1.000
    O26     O    0.72251   0.75526   0.69281   1.000
    O27     O    0.68809   0.74494   0.79273   1.000
loop_
    _geom_bond_atom_site_label_1
    _geom_bond_atom_site_label_2
    _geom_bond_distance
    _geom_bond_site_symmetry_2
    _ccdc_geom_bond_type
    Zn0    O14       2.06842      .   S
    Zn0    O13       2.09284      .   S
    Zn0    O19       2.05427      .   S
    Zn0    O17       1.95290      .   S
    O14    C6        1.27444      .   S
    O13    C7        1.27437      .   S
    O19    C5        1.27629      .   S
    O17    C4        1.34013  1_545   S
    C6     O15       1.27520      .   S
    C7     O12       1.27418      .   S
    C5     O18       1.27414      .   S
    C4     O16       1.27549      .   S
    O15    Zn3       2.05466      .   S
    O12    Zn3       2.06473      .   S
    O18    Zn3       2.08292      .   S
    O16    Zn3       2.08405  1_565   S
    Zn1    O24       2.08412  1_565   S
    Zn1    O26       2.08293      .   S
    Zn1    O20       2.06468      .   S
    Zn1    O23       2.05481      .   S
    O24    C8        1.27547      .   S
    O26    C9        1.27414      .   S
    O20    C11       1.27421      .   S
    O23    C10       1.27518      .   S
    C8     O25       1.27467      .   S
    C9     O27       1.27628      .   S
    C11    O21       1.27436      .   S
    C10    O22       1.27447      .   S
    O25    Zn2       2.08096  1_545   S
    O27    Zn2       2.05425      .   S
    O21    Zn2       2.09347      .   S
    O22    Zn2       2.06802      .   S
    Zn3    Zn0       2.79431      .   S
    Zn1    Zn2       2.79433      .   S
