# CIF file generated by openbabel 2.4.90, see http://openbabel.sf.net
data_I
_chemical_name_common ''
_cell_length_a 15.345
_cell_length_b 15.371
_cell_length_c 22.383
_cell_angle_alpha 84.315
_cell_angle_beta 87.394
_cell_angle_gamma 81.031
_space_group_name_H-M_alt 'P 1'
_space_group_name_Hall 'P 1'
loop_
    _symmetry_equiv_pos_as_xyz
    x,y,z
loop_
    _atom_site_label
    _atom_site_type_symbol
    _atom_site_fract_x
    _atom_site_fract_y
    _atom_site_fract_z
    _atom_site_occupancy
    C0      C    0.30735   0.94419   0.26115   1.000
    C1      C    0.29415   0.28778   0.25743   1.000
    C2      C    0.13129   0.12941   0.25605   1.000
    C3      C    0.47467   0.10720   0.25633   1.000
    C4      C    0.69266   0.05583   0.73887   1.000
    C5      C    0.70589   0.71224   0.74257   1.000
    C6      C    0.86875   0.87057   0.74394   1.000
    C7      C    0.52535   0.89287   0.74367   1.000
