# CIF file generated by openbabel 2.4.90, see http://openbabel.sf.net
data_I
_chemical_name_common ''
_cell_length_a 15.345
_cell_length_b 15.371
_cell_length_c 22.383
_cell_angle_alpha 84.315
_cell_angle_beta 87.394
_cell_angle_gamma 81.031
_space_group_name_H-M_alt 'P 1'
_space_group_name_Hall 'P 1'
loop_
    _symmetry_equiv_pos_as_xyz
    x,y,z
loop_
    _atom_site_label
    _atom_site_type_symbol
    _atom_site_fract_x
    _atom_site_fract_y
    _atom_site_fract_z
    _atom_site_occupancy
    C0      C    0.30004   0.10716   0.32057   1.000
    C1      C    0.30503   0.12565   0.19506   1.000
    C2      C    0.69998   0.89286   0.67943   1.000
    C3      C    0.69504   0.87436   0.80494   1.000
    C4      C    0.22520   0.24183   0.08960   1.000
    C5      C    0.22512   0.23953   0.97763   1.000
    C6      C    0.40760   0.00000   0.00000   1.000
    C7      C    0.40085   0.00745   0.10791   1.000
    C8      C    0.53339   0.11157   0.80362   1.000
    C9      C    0.53063   0.10732   0.69214   1.000
    C10     C    0.09274   0.09674   0.71244   1.000
    C11     C    0.09487   0.10365   0.82428   1.000
    C12     C    0.20799   0.21413   0.52640   1.000
    C13     C    0.20723   0.21139   0.41445   1.000
    C14     C    0.39685   0.98715   0.41927   1.000
    C15     C    0.40564   0.98056   0.53100   1.000
    C16     C    0.27176   0.85799   0.16773   1.000
    C17     C    0.26589   0.69747   0.16637   1.000
    C18     C    0.33446   0.65528   0.35277   1.000
    C19     C    0.33586   0.81646   0.35392   1.000
    C20     C    0.34773   0.56200   0.16719   1.000
    C21     C    0.34266   0.40118   0.16640   1.000
    C22     C    0.24640   0.38921   0.34928   1.000
    C23     C    0.24672   0.55078   0.35024   1.000
    C24     C    0.01984   0.18741   0.16506   1.000
    C25     C    0.85805   0.18746   0.16495   1.000
    C26     C    0.86705   0.06493   0.34718   1.000
    C27     C    0.02725   0.07039   0.34708   1.000
    C28     C    0.75078   0.11140   0.16050   1.000
    C29     C    0.58973   0.10515   0.16094   1.000
    C30     C    0.57169   0.12560   0.35057   1.000
    C31     C    0.73203   0.13511   0.35114   1.000
    C32     C    0.77483   0.75816   0.91041   1.000
    C33     C    0.77488   0.76048   0.02237   1.000
    C34     C    0.59239   0.00519   0.00229   1.000
    C35     C    0.59916   0.99254   0.89208   1.000
    C36     C    0.46660   0.88846   0.19638   1.000
    C37     C    0.46936   0.89273   0.30785   1.000
    C38     C    0.90726   0.90326   0.28756   1.000
    C39     C    0.90512   0.89637   0.17572   1.000
    C40     C    0.79202   0.78588   0.47361   1.000
    C41     C    0.79278   0.78864   0.58555   1.000
    C42     C    0.60315   0.01288   0.58073   1.000
    C43     C    0.59435   0.01945   0.46900   1.000
    C44     C    0.72825   0.14204   0.83228   1.000
    C45     C    0.73411   0.30257   0.83363   1.000
    C46     C    0.66553   0.34474   0.64724   1.000
    C47     C    0.66414   0.18356   0.64609   1.000
    C48     C    0.65227   0.43803   0.83281   1.000
    C49     C    0.65735   0.59885   0.83360   1.000
    C50     C    0.75362   0.61081   0.65072   1.000
    C51     C    0.75328   0.44924   0.64976   1.000
    C52     C    0.00000   0.81263   0.83493   1.000
    C53     C    0.14196   0.81259   0.83506   1.000
    C54     C    0.13297   0.93512   0.65283   1.000
    C55     C    0.97279   0.92963   0.65292   1.000
    C56     C    0.24925   0.88862   0.83951   1.000
    C57     C    0.41031   0.89487   0.83907   1.000
    C58     C    0.42832   0.87447   0.64943   1.000
    C59     C    0.26798   0.86496   0.64886   1.000
    C60     C    0.26481   0.18882   0.06704   1.000
    C61     C    0.26508   0.18724   0.00509   1.000
    C62     C    0.31650   0.11675   0.97926   1.000
    C63     C    0.36661   0.05083   0.01598   1.000
    C64     C    0.36302   0.05758   0.07757   1.000
    C65     C    0.23305   0.11080   0.88991   1.000
    C66     C    0.23365   0.10785   0.82417   1.000
    C67     C    0.31326   0.10821   0.78976   1.000
    C68     C    0.39448   0.10991   0.81697   1.000
    C69     C    0.39837   0.10964   0.88281   1.000
    C70     C    0.47160   0.11048   0.78194   1.000
    C71     C    0.47006   0.10869   0.71946   1.000
    C72     C    0.39155   0.10523   0.69188   1.000
    C73     C    0.31191   0.10508   0.72642   1.000
    C74     C    0.23128   0.10069   0.69953   1.000
    C75     C    0.15373   0.10068   0.73431   1.000
    C76     C    0.15499   0.10430   0.79654   1.000
    C77     C    0.22860   0.09499   0.63424   1.000
    C78     C    0.39241   0.10169   0.62612   1.000
    C79     C    0.30713   0.09726   0.53697   1.000
    C80     C    0.25060   0.16287   0.50421   1.000
    C81     C    0.24952   0.16144   0.44235   1.000
    C82     C    0.35582   0.03584   0.44477   1.000
    C83     C    0.36060   0.03250   0.50691   1.000
    C84     C    0.30735   0.94419   0.26115   1.000
    C85     C    0.30444   0.84726   0.26077   1.000
    C86     C    0.28545   0.81273   0.20796   1.000
    C87     C    0.28296   0.72278   0.20742   1.000
    C88     C    0.29993   0.66417   0.25948   1.000
    C89     C    0.31924   0.69948   0.31219   1.000
    C90     C    0.32110   0.78954   0.31294   1.000
    C91     C    0.29749   0.56855   0.25879   1.000
    C92     C    0.32365   0.52497   0.20699   1.000
    C93     C    0.32165   0.43492   0.20636   1.000
    C94     C    0.29405   0.38528   0.25771   1.000
    C95     C    0.26796   0.42802   0.30954   1.000
    C96     C    0.26925   0.51822   0.30998   1.000
    C97     C    0.29415   0.28778   0.25743   1.000
    C98     C    0.13129   0.12941   0.25605   1.000
    C99     C    0.03353   0.12948   0.25616   1.000
    C100    C    0.98517   0.16142   0.20479   1.000
    C101    C    0.89473   0.16025   0.20486   1.000
    C102    C    0.84969   0.12626   0.25605   1.000
    C103    C    0.89902   0.09412   0.30734   1.000
    C104    C    0.98932   0.09598   0.30745   1.000
    C105    C    0.75398   0.12319   0.25587   1.000
    C106    C    0.71192   0.11559   0.20240   1.000
    C107    C    0.62208   0.11108   0.20236   1.000
    C108    C    0.57120   0.11345   0.25590   1.000
    C109    C    0.61213   0.12195   0.30934   1.000
    C110    C    0.70184   0.12673   0.30934   1.000
    C111    C    0.47467   0.10720   0.25633   1.000
    C112    C    0.73522   0.81118   0.93297   1.000
    C113    C    0.73493   0.81276   0.99491   1.000
    C114    C    0.68350   0.88325   0.02074   1.000
    C115    C    0.63340   0.94916   0.98402   1.000
    C116    C    0.63699   0.94242   0.92243   1.000
    C117    C    0.76695   0.88923   0.11008   1.000
    C118    C    0.76634   0.89214   0.17583   1.000
    C119    C    0.68673   0.89180   0.21024   1.000
    C120    C    0.60552   0.89006   0.18303   1.000
    C121    C    0.60162   0.89035   0.11719   1.000
    C122    C    0.52839   0.88955   0.21805   1.000
    C123    C    0.52994   0.89134   0.28054   1.000
    C124    C    0.60844   0.89477   0.30812   1.000
    C125    C    0.68808   0.89493   0.27358   1.000
    C126    C    0.76872   0.89928   0.30047   1.000
    C127    C    0.84626   0.89933   0.26568   1.000
    C128    C    0.84500   0.89571   0.20345   1.000
    C129    C    0.77139   0.90502   0.36576   1.000
    C130    C    0.60759   0.89831   0.37388   1.000
    C131    C    0.69287   0.90275   0.46303   1.000
    C132    C    0.74940   0.83715   0.49579   1.000
    C133    C    0.75049   0.83859   0.55765   1.000
    C134    C    0.64418   0.96419   0.55523   1.000
    C135    C    0.63940   0.96751   0.49309   1.000
    C136    C    0.69266   0.05583   0.73887   1.000
    C137    C    0.69557   0.15276   0.73925   1.000
    C138    C    0.71456   0.18730   0.79205   1.000
    C139    C    0.71704   0.27725   0.79259   1.000
    C140    C    0.70006   0.33586   0.74053   1.000
    C141    C    0.68075   0.30054   0.68782   1.000
    C142    C    0.67890   0.21048   0.68707   1.000
    C143    C    0.70251   0.43148   0.74121   1.000
    C144    C    0.67635   0.47506   0.79302   1.000
    C145    C    0.67835   0.56511   0.79364   1.000
    C146    C    0.70595   0.61475   0.74228   1.000
    C147    C    0.73205   0.57200   0.69046   1.000
    C148    C    0.73076   0.48180   0.69002   1.000
    C149    C    0.70589   0.71224   0.74257   1.000
    C150    C    0.86875   0.87057   0.74394   1.000
    C151    C    0.96649   0.87057   0.74384   1.000
    C152    C    0.01485   0.83862   0.79521   1.000
    C153    C    0.10529   0.83980   0.79514   1.000
    C154    C    0.15034   0.87377   0.74396   1.000
    C155    C    0.10102   0.90592   0.69266   1.000
    C156    C    0.01071   0.90406   0.69254   1.000
    C157    C    0.24604   0.87687   0.74414   1.000
    C158    C    0.28812   0.88444   0.79762   1.000
    C159    C    0.37795   0.88894   0.79765   1.000
    C160    C    0.42883   0.88658   0.74410   1.000
    C161    C    0.38789   0.87810   0.69066   1.000
    C162    C    0.29818   0.87333   0.69066   1.000
    C163    C    0.52535   0.89287   0.74367   1.000
    C164    C    0.31281   0.12510   0.10277   1.000
    C165    C    0.31633   0.11248   0.91536   1.000
    C166    C    0.30975   0.09765   0.60105   1.000
    C167    C    0.30117   0.09915   0.41304   1.000
    C168    C    0.68722   0.87490   0.89723   1.000
    C169    C    0.68367   0.88750   0.08465   1.000
    C170    C    0.69026   0.90234   0.39895   1.000
    C171    C    0.69883   0.90088   0.58696   1.000
    C172    C    0.16625   0.11104   0.92202   1.000
    C173    C    0.46723   0.10765   0.90910   1.000
    C174    C    0.16131   0.08798   0.60878   1.000
    C175    C    0.45898   0.10332   0.59379   1.000
    C176    C    0.43333   0.11145   0.30688   1.000
    C177    C    0.44144   0.09779   0.20665   1.000
    C178    C    0.16921   0.15152   0.20625   1.000
    C179    C    0.16897   0.10622   0.30598   1.000
    C180    C    0.32199   0.97191   0.31106   1.000
    C181    C    0.29653   0.00000   0.21120   1.000
    C182    C    0.27752   0.24476   0.30718   1.000
    C183    C    0.31191   0.25509   0.20726   1.000
    C184    C    0.83375   0.88896   0.07798   1.000
    C185    C    0.53277   0.89233   0.09089   1.000
    C186    C    0.83869   0.91200   0.39121   1.000
    C187    C    0.54102   0.89668   0.40621   1.000
    C188    C    0.56669   0.88854   0.69312   1.000
    C189    C    0.55860   0.90230   0.79334   1.000
    C190    C    0.83083   0.84848   0.79375   1.000
    C191    C    0.83105   0.89383   0.69402   1.000
    C192    C    0.67802   0.02810   0.68896   1.000
    C193    C    0.70353   0.00850   0.78881   1.000
    C194    C    0.72251   0.75526   0.69281   1.000
    C195    C    0.68809   0.74494   0.79273   1.000
    O196    O    0.38711   0.02542   0.00799   1.000
    O197    O    0.61289   0.97718   0.99316   1.000
    O198    O    0.26494   0.18803   0.03607   1.000
    O199    O    0.24510   0.21339   0.99136   1.000
    O200    O    0.29079   0.15200   0.99218   1.000
    O201    O    0.36482   0.05421   0.04677   1.000
    O202    O    0.34155   0.08379   0.99762   1.000
    O203    O    0.68358   0.88537   0.05269   1.000
    O204    O    0.65845   0.91621   0.00238   1.000
    O205    O    0.70921   0.84801   0.00782   1.000
    O206    O    0.75491   0.78662   0.00864   1.000
    O207    O    0.24500   0.21532   0.07832   1.000
    O208    O    0.28881   0.15696   0.08490   1.000
    O209    O    0.33791   0.09134   0.09017   1.000
    O210    O    0.38194   0.03251   0.09274   1.000
    O211    O    0.80035   0.88909   0.09403   1.000
    O212    O    0.72531   0.88836   0.09736   1.000
    O213    O    0.64265   0.88892   0.10092   1.000
    O214    O    0.56720   0.89134   0.10404   1.000
    O215    O    0.30892   0.12538   0.14891   1.000
    O216    O    0.76664   0.89068   0.14296   1.000
    O217    O    0.60357   0.89021   0.15011   1.000
    O218    O    0.73135   0.11349   0.18145   1.000
    O219    O    0.60590   0.10811   0.18165   1.000
    O220    O    0.87639   0.17385   0.18490   1.000
    O221    O    0.00251   0.17441   0.18493   1.000
    O222    O    0.27443   0.71012   0.18689   1.000
    O223    O    0.33216   0.41805   0.18638   1.000
    O224    O    0.33569   0.54349   0.18709   1.000
    O225    O    0.27861   0.83536   0.18784   1.000
    O226    O    0.87506   0.89604   0.18959   1.000
    O227    O    0.80567   0.89393   0.18964   1.000
    O228    O    0.72653   0.89197   0.19304   1.000
    O229    O    0.64612   0.89093   0.19663   1.000
    O230    O    0.56696   0.88981   0.20054   1.000
    O231    O    0.23712   0.13859   0.20065   1.000
    O232    O    0.37323   0.11172   0.20085   1.000
    O233    O    0.30847   0.19037   0.20116   1.000
    O234    O    0.30078   0.06283   0.20313   1.000
    O235    O    0.49750   0.88900   0.20721   1.000
    O236    O    0.66700   0.11334   0.20238   1.000
    O237    O    0.59664   0.11227   0.22913   1.000
    O238    O    0.73295   0.11939   0.22913   1.000
    O239    O    0.84563   0.89752   0.23457   1.000
    O240    O    0.93995   0.16083   0.20483   1.000
    O241    O    0.00935   0.14545   0.23047   1.000
    O242    O    0.87221   0.14325   0.23045   1.000
    O243    O    0.15025   0.14047   0.23115   1.000
    O244    O    0.32265   0.47994   0.20667   1.000
    O245    O    0.30785   0.41010   0.23204   1.000
    O246    O    0.45806   0.10250   0.23149   1.000
    O247    O    0.31057   0.54676   0.23289   1.000
    O248    O    0.30303   0.27143   0.23234   1.000
    O249    O    0.28421   0.76776   0.20769   1.000
    O250    O    0.29144   0.69348   0.23345   1.000
    O251    O    0.29495   0.83000   0.23436   1.000
    O252    O    0.68741   0.89336   0.24191   1.000
    O253    O    0.30194   0.97209   0.23617   1.000
    O254    O    0.52916   0.89044   0.24930   1.000
    O255    O    0.80183   0.12473   0.25596   1.000
    O256    O    0.72791   0.12496   0.28260   1.000
    O257    O    0.52293   0.11033   0.25611   1.000
    O258    O    0.59166   0.11770   0.28262   1.000
    O259    O    0.87435   0.11019   0.28169   1.000
    O260    O    0.08241   0.12945   0.25610   1.000
    O261    O    0.15013   0.11782   0.28102   1.000
    O262    O    0.01143   0.11273   0.28180   1.000
    O263    O    0.45400   0.10933   0.28160   1.000
    O264    O    0.29410   0.33653   0.25757   1.000
    O265    O    0.28583   0.26627   0.28230   1.000
    O266    O    0.28101   0.40665   0.28363   1.000
    O267    O    0.29871   0.61636   0.25914   1.000
    O268    O    0.28337   0.54339   0.28439   1.000
    O269    O    0.30959   0.68183   0.28583   1.000
    O270    O    0.30590   0.89573   0.26096   1.000
    O271    O    0.31277   0.81840   0.28685   1.000
    O272    O    0.31467   0.95805   0.28610   1.000
    O273    O    0.87676   0.90130   0.27662   1.000
    O274    O    0.80749   0.89931   0.28308   1.000
    O275    O    0.72840   0.89710   0.28702   1.000
    O276    O    0.64826   0.89485   0.29085   1.000
    O277    O    0.49965   0.89203   0.29420   1.000
    O278    O    0.56919   0.89305   0.29433   1.000
    O279    O    0.77006   0.90215   0.33311   1.000
    O280    O    0.23450   0.10669   0.31328   1.000
    O281    O    0.36668   0.10930   0.31373   1.000
    O282    O    0.28878   0.17596   0.31387   1.000
    O283    O    0.94417   0.09505   0.30740   1.000
    O284    O    0.88303   0.07952   0.32726   1.000
    O285    O    0.00828   0.08319   0.32727   1.000
    O286    O    0.60802   0.89654   0.34100   1.000
    O287    O    0.65699   0.12434   0.30934   1.000
    O288    O    0.71693   0.13092   0.33024   1.000
    O289    O    0.59191   0.12377   0.32996   1.000
    O290    O    0.26860   0.47312   0.30976   1.000
    O291    O    0.25718   0.40862   0.32941   1.000
    O292    O    0.25798   0.53450   0.33011   1.000
    O293    O    0.31101   0.03954   0.31581   1.000
    O294    O    0.32017   0.74451   0.31256   1.000
    O295    O    0.32685   0.67738   0.33248   1.000
    O296    O    0.32848   0.80300   0.33343   1.000
    O297    O    0.30060   0.10316   0.36680   1.000
    O298    O    0.80504   0.90851   0.37849   1.000
    O299    O    0.73082   0.90368   0.38235   1.000
    O300    O    0.64892   0.90033   0.38642   1.000
    O301    O    0.57430   0.89749   0.39005   1.000
    O302    O    0.69156   0.90255   0.43099   1.000
    O303    O    0.27535   0.13030   0.42769   1.000
    O304    O    0.32850   0.06749   0.42890   1.000
    O305    O    0.22838   0.18642   0.42840   1.000
    O306    O    0.37634   0.01149   0.43202   1.000
    O307    O    0.25006   0.16216   0.47328   1.000
    O308    O    0.35821   0.03417   0.47584   1.000
    O309    O    0.66613   0.93513   0.47806   1.000
    O310    O    0.72113   0.86995   0.47941   1.000
    O311    O    0.61687   0.99348   0.48104   1.000
    O312    O    0.77071   0.81151   0.48470   1.000
    O313    O    0.64179   0.96585   0.52416   1.000
    O314    O    0.74994   0.83787   0.52672   1.000
    O315    O    0.22929   0.18850   0.51530   1.000
    O316    O    0.27887   0.13006   0.52059   1.000
    O317    O    0.38312   0.00653   0.51895   1.000
    O318    O    0.33386   0.06488   0.52194   1.000
    O319    O    0.30844   0.09745   0.56901   1.000
    O320    O    0.62366   0.98853   0.56798   1.000
    O321    O    0.67150   0.93253   0.57109   1.000
    O322    O    0.77163   0.81361   0.57160   1.000
    O323    O    0.72466   0.86973   0.57231   1.000
    O324    O    0.69941   0.89687   0.63319   1.000
    O325    O    0.42570   0.10250   0.60995   1.000
    O326    O    0.35108   0.09967   0.61358   1.000
    O327    O    0.26917   0.09632   0.61764   1.000
    O328    O    0.19496   0.09148   0.62151   1.000
    O329    O    0.39198   0.10346   0.65900   1.000
    O330    O    0.22994   0.09784   0.66688   1.000
    O331    O    0.67152   0.19702   0.66658   1.000
    O332    O    0.67314   0.32264   0.66753   1.000
    O333    O    0.28308   0.86914   0.66976   1.000
    O334    O    0.40810   0.87628   0.67005   1.000
    O335    O    0.74202   0.46552   0.66989   1.000
    O336    O    0.74283   0.59140   0.67059   1.000
    O337    O    0.11699   0.92052   0.67274   1.000
    O338    O    0.99175   0.91684   0.67273   1.000
    O339    O    0.68900   0.96048   0.68420   1.000
    O340    O    0.71124   0.82406   0.68612   1.000
    O341    O    0.63333   0.89070   0.68627   1.000
    O342    O    0.76552   0.89334   0.68672   1.000
    O343    O    0.67982   0.25551   0.68745   1.000
    O344    O    0.68724   0.18162   0.71316   1.000
    O345    O    0.69041   0.31820   0.71417   1.000
    O346    O    0.68534   0.04197   0.71392   1.000
    O347    O    0.73140   0.52690   0.69024   1.000
    O348    O    0.71663   0.45664   0.71561   1.000
    O349    O    0.71900   0.59337   0.71637   1.000
    O350    O    0.34303   0.87571   0.69066   1.000
    O351    O    0.40836   0.88234   0.71738   1.000
    O352    O    0.27211   0.87510   0.71740   1.000
    O353    O    0.43080   0.10696   0.70567   1.000
    O354    O    0.35173   0.10515   0.70915   1.000
    O355    O    0.50034   0.10801   0.70580   1.000
    O356    O    0.05586   0.90499   0.69260   1.000
    O357    O    0.98860   0.88731   0.71819   1.000
    O358    O    0.12568   0.88985   0.71831   1.000
    O359    O    0.71420   0.73375   0.71769   1.000
    O360    O    0.54602   0.89070   0.71839   1.000
    O361    O    0.84990   0.88220   0.71898   1.000
    O362    O    0.27160   0.10289   0.71297   1.000
    O363    O    0.19251   0.10069   0.71692   1.000
    O364    O    0.12323   0.09871   0.72338   1.000
    O365    O    0.47083   0.10959   0.75070   1.000
    O366    O    0.31259   0.10664   0.75809   1.000
    O367    O    0.15436   0.10249   0.76543   1.000
    O368    O    0.69412   0.10430   0.73906   1.000
    O369    O    0.69809   0.03217   0.76384   1.000
    O370    O    0.70506   0.17003   0.76565   1.000
    O371    O    0.70129   0.38367   0.74087   1.000
    O372    O    0.70855   0.30655   0.76656   1.000
    O373    O    0.68943   0.45327   0.76711   1.000
    O374    O    0.70592   0.66349   0.74243   1.000
    O375    O    0.69215   0.58993   0.76796   1.000
    O376    O    0.69699   0.72859   0.76765   1.000
    O377    O    0.47709   0.88972   0.74389   1.000
    O378    O    0.54197   0.89758   0.76850   1.000
    O379    O    0.91762   0.87057   0.74389   1.000
    O380    O    0.99067   0.85459   0.76952   1.000
    O381    O    0.84979   0.85953   0.76884   1.000
    O382    O    0.19819   0.87532   0.74405   1.000
    O383    O    0.12781   0.85678   0.76955   1.000
    O384    O    0.40339   0.88776   0.77088   1.000
    O385    O    0.26708   0.88065   0.77088   1.000
    O386    O    0.50250   0.11102   0.79278   1.000
    O387    O    0.43304   0.11019   0.79946   1.000
    O388    O    0.69929   0.94143   0.79688   1.000
    O389    O    0.35387   0.10906   0.80336   1.000
    O390    O    0.27346   0.10803   0.80696   1.000
    O391    O    0.71580   0.23227   0.79232   1.000
    O392    O    0.72141   0.16467   0.81217   1.000
    O393    O    0.72557   0.28991   0.81311   1.000
    O394    O    0.69157   0.80965   0.79884   1.000
    O395    O    0.67735   0.52009   0.79333   1.000
    O396    O    0.66431   0.45655   0.81291   1.000
    O397    O    0.62682   0.88833   0.79914   1.000
    O398    O    0.66785   0.58198   0.81362   1.000
    O399    O    0.76294   0.86142   0.79934   1.000
    O400    O    0.06007   0.83921   0.79517   1.000
    O401    O    0.12363   0.82619   0.81510   1.000
    O402    O    0.00742   0.82562   0.81507   1.000
    O403    O    0.19432   0.10607   0.81035   1.000
    O404    O    0.12493   0.10397   0.81041   1.000
    O405    O    0.33304   0.88669   0.79763   1.000
    O406    O    0.26869   0.88653   0.81856   1.000
    O407    O    0.39413   0.89190   0.81836   1.000
    O408    O    0.69113   0.87463   0.85108   1.000
    O409    O    0.39642   0.10978   0.84989   1.000
    O410    O    0.23335   0.10933   0.85704   1.000
    O411    O    0.43280   0.10864   0.89596   1.000
    O412    O    0.35735   0.11106   0.89908   1.000
    O413    O    0.27469   0.11164   0.90263   1.000
    O414    O    0.19965   0.11092   0.90597   1.000
    O415    O    0.61808   0.96748   0.90725   1.000
    O416    O    0.66210   0.90866   0.90983   1.000
    O417    O    0.71122   0.84304   0.91510   1.000
    O418    O    0.75502   0.78467   0.92169   1.000
    O419    O    0.31642   0.11462   0.94731   1.000
    O420    O    0.63519   0.94579   0.95322   1.000
    O421    O    0.73507   0.81197   0.96394   1.000
    O422    O    0.30253   0.11640   0.25781   1.000
    O423    O    0.69751   0.88361   0.74218   1.000
loop_
    _geom_bond_atom_site_label_1
    _geom_bond_atom_site_label_2
    _geom_bond_distance
    _geom_bond_site_symmetry_2
    _ccdc_geom_bond_type
    C6     O196      0.50391      .   S
    C63    O196      0.50391      .   S
    C34    O197      0.54369  1_544   S
    C115   O197      0.54369      .   S
    C61    O198      0.69443      .   S
    C60    O198      0.69443      .   S
    C61    O199      0.54370  1_554   S
    C5     O199      0.54370      .   S
    C61    O200      0.69766  1_554   S
    C62    O200      0.69766      .   S
    C63    O201      0.69533      .   S
    C64    O201      0.69533      .   S
    C63    O202      0.69691  1_554   S
    C62    O202      0.69691      .   S
    C114   O203      0.71928      .   S
    C169   O203      0.71928      .   S
    C114   O204      0.69690      .   S
    C115   O204      0.69690  1_556   S
    C114   O205      0.69766      .   S
    C113   O205      0.69766  1_556   S
    C33    O206      0.54370      .   S
    C113   O206      0.54370  1_556   S
    C60    O207      0.54491      .   S
    C4     O207      0.54491      .   S
    C60    O208      0.67359      .   S
    C164   O208      0.67359      .   S
    C64    O209      0.67386      .   S
    C164   O209      0.67386      .   S
    C64    O210      0.54419      .   S
    C7     O210      0.54419      .   S
    C184   O211      0.61227      .   S
    C117   O211      0.61227      .   S
    C169   O212      0.71373      .   S
    C117   O212      0.71373      .   S
    C169   O213      0.71122      .   S
    C121   O213      0.71122      .   S
    C185   O214      0.61373      .   S
    C121   O214      0.61373      .   S
    C164   O215      1.03220      .   S
    C1     O215      1.03220      .   S
    C117   O216      0.73814      .   S
    C118   O216      0.73814      .   S
    C121   O217      0.73856      .   S
    C120   O217      0.73856      .   S
    C28    O218      0.54504      .   S
    C106   O218      0.54504      .   S
    C29    O219      0.54478      .   S
    C107   O219      0.54478      .   S
    C25    O220      0.54504      .   S
    C101   O220      0.54504      .   S
    C24    O221      0.54458      .   S
    C100   O221      0.54458  1_655   S
    C17    O222      0.54514      .   S
    C87    O222      0.54514      .   S
    C21    O223      0.54461      .   S
    C93    O223      0.54461      .   S
    C20    O224      0.54521      .   S
    C92    O224      0.54521      .   S
    C16    O225      0.54467      .   S
    C86    O225      0.54467      .   S
    C39    O226      0.54452      .   S
    C128   O226      0.54452      .   S
    C118   O227      0.69598      .   S
    C128   O227      0.69598      .   S
    C118   O228      0.70735      .   S
    C119   O228      0.70735      .   S
    C120   O229      0.70838      .   S
    C119   O229      0.70838      .   S
    C120   O230      0.69512      .   S
    C122   O230      0.69512      .   S
    C1     O231      1.03421      .   S
    C178   O231      1.03421      .   S
    C1     O232      1.04642      .   S
    C177   O232      1.04642      .   S
    C1     O233      1.02714      .   S
    C183   O233      1.02714      .   S
    C1     O234      0.97645      .   S
    C181   O234      0.97645      .   S
    C36    O235      0.54387      .   S
    C122   O235      0.54387      .   S
    C107   O236      0.69551      .   S
    C106   O236      0.69551      .   S
    C107   O237      0.70036      .   S
    C108   O237      0.70036      .   S
    C106   O238      0.70429      .   S
    C105   O238      0.70429      .   S
    C128   O239      0.70030      .   S
    C127   O239      0.70030      .   S
    C100   O240      0.69534      .   S
    C101   O240      0.69534      .   S
    C100   O241      0.70099  1_655   S
    C99    O241      0.70099      .   S
    C101   O242      0.70448      .   S
    C102   O242      0.70448      .   S
    C178   O243      0.63722      .   S
    C98    O243      0.63722      .   S
    C93    O244      0.69536      .   S
    C92    O244      0.69536      .   S
    C93    O245      0.70101      .   S
    C94    O245      0.70101      .   S
    C177   O246      0.63718      .   S
    C111   O246      0.63718      .   S
    C92    O247      0.70399      .   S
    C91    O247      0.70399      .   S
    C183   O248      0.63814      .   S
    C97    O248      0.63814      .   S
    C87    O249      0.69519      .   S
    C86    O249      0.69519      .   S
    C87    O250      0.70418      .   S
    C88    O250      0.70418      .   S
    C86    O251      0.70130      .   S
    C85    O251      0.70130      .   S
    C119   O252      0.71220      .   S
    C125   O252      0.71220      .   S
    C181   O253      0.67006  1_545   S
    C84    O253      0.67006      .   S
    C122   O254      0.70151      .   S
    C123   O254      0.70151      .   S
    C105   O255      0.73847      .   S
    C102   O255      0.73847      .   S
    C105   O256      0.70500      .   S
    C110   O256      0.70500      .   S
    C108   O257      0.74932      .   S
    C111   O257      0.74932      .   S
    C108   O258      0.70133      .   S
    C109   O258      0.70133      .   S
    C102   O259      0.70453      .   S
    C103   O259      0.70453      .   S
    C98    O260      0.74987      .   S
    C99    O260      0.74987      .   S
    C98    O261      0.63760      .   S
    C179   O261      0.63760      .   S
    C99    O262      0.70085      .   S
    C104   O262      0.70085  1_655   S
    C111   O263      0.63709      .   S
    C176   O263      0.63709      .   S
    C97    O264      0.74953      .   S
    C94    O264      0.74953      .   S
    C97    O265      0.63707      .   S
    C182   O265      0.63707      .   S
    C94    O266      0.70079      .   S
    C95    O266      0.70079      .   S
    C91    O267      0.73885      .   S
    C88    O267      0.73885      .   S
    C91    O268      0.70404      .   S
    C96    O268      0.70404      .   S
    C88    O269      0.70416      .   S
    C89    O269      0.70416      .   S
    C85    O270      0.74917      .   S
    C84    O270      0.74917      .   S
    C85    O271      0.70131      .   S
    C90    O271      0.70131      .   S
    C84    O272      0.63774      .   S
    C180   O272      0.63774      .   S
    C127   O273      0.54418      .   S
    C38    O273      0.54418      .   S
    C127   O274      0.69605      .   S
    C126   O274      0.69605      .   S
    C125   O275      0.70702      .   S
    C126   O275      0.70702      .   S
    C125   O276      0.70815      .   S
    C124   O276      0.70815      .   S
    C123   O277      0.54382      .   S
    C37    O277      0.54382      .   S
    C123   O278      0.69448      .   S
    C124   O278      0.69448      .   S
    C126   O279      0.73777      .   S
    C129   O279      0.73777      .   S
    C179   O280      1.02733      .   S
    C0     O280      1.02733      .   S
    C176   O281      1.03236      .   S
    C0     O281      1.03236      .   S
    C182   O282      1.04146      .   S
    C0     O282      1.04146      .   S
    C103   O283      0.69532      .   S
    C104   O283      0.69532      .   S
    C103   O284      0.54460      .   S
    C26    O284      0.54460      .   S
    C104   O285      0.54462  1_655   S
    C27    O285      0.54462      .   S
    C124   O286      0.73884      .   S
    C130   O286      0.73884      .   S
    C110   O287      0.69494      .   S
    C109   O287      0.69494      .   S
    C110   O288      0.54508      .   S
    C31    O288      0.54508      .   S
    C109   O289      0.54476      .   S
    C30    O289      0.54476      .   S
    C95    O290      0.69536      .   S
    C96    O290      0.69536      .   S
    C95    O291      0.54454      .   S
    C22    O291      0.54454      .   S
    C96    O292      0.54520      .   S
    C23    O292      0.54520      .   S
    C180   O293      1.04203  1_565   S
    C0     O293      1.04203      .   S
    C89    O294      0.69542      .   S
    C90    O294      0.69542      .   S
    C89    O295      0.54514      .   S
    C18    O295      0.54514      .   S
    C90    O296      0.54477      .   S
    C19    O296      0.54477      .   S
    C0     O297      1.03097      .   S
    C167   O297      1.03097      .   S
    C129   O298      0.61292      .   S
    C186   O298      0.61292      .   S
    C129   O299      0.71230      .   S
    C170   O299      0.71230      .   S
    C130   O300      0.71131      .   S
    C170   O300      0.71131      .   S
    C130   O301      0.61339      .   S
    C187   O301      0.61339      .   S
    C170   O302      0.71870      .   S
    C131   O302      0.71870      .   S
    C167   O303      0.67375      .   S
    C81    O303      0.67375      .   S
    C167   O304      0.67409      .   S
    C82    O304      0.67409      .   S
    C13    O305      0.54474      .   S
    C81    O305      0.54474      .   S
    C14    O306      0.54482  1_565   S
    C82    O306      0.54482      .   S
    C81    O307      0.69393      .   S
    C80    O307      0.69393      .   S
    C82    O308      0.69578      .   S
    C83    O308      0.69578      .   S
    C131   O309      0.69722      .   S
    C135   O309      0.69722      .   S
    C131   O310      0.69746      .   S
    C132   O310      0.69746      .   S
    C43    O311      0.54370  1_545   S
    C135   O311      0.54370      .   S
    C40    O312      0.54370      .   S
    C132   O312      0.54370      .   S
    C135   O313      0.69579      .   S
    C134   O313      0.69579      .   S
    C132   O314      0.69394      .   S
    C133   O314      0.69394      .   S
    C80    O315      0.54371      .   S
    C12    O315      0.54371      .   S
    C80    O316      0.69745      .   S
    C79    O316      0.69745      .   S
    C83    O317      0.54371      .   S
    C15    O317      0.54371  1_565   S
    C83    O318      0.69721      .   S
    C79    O318      0.69721      .   S
    C79    O319      0.71869      .   S
    C166   O319      0.71869      .   S
    C134   O320      0.54483      .   S
    C42    O320      0.54483  1_545   S
    C134   O321      0.67409      .   S
    C171   O321      0.67409      .   S
    C133   O322      0.54474      .   S
    C41    O322      0.54474      .   S
    C133   O323      0.67375      .   S
    C171   O323      0.67375      .   S
    C171   O324      1.03094      .   S
    C2     O324      1.03094      .   S
    C175   O325      0.61339      .   S
    C78    O325      0.61339      .   S
    C166   O326      0.71131      .   S
    C78    O326      0.71131      .   S
    C166   O327      0.71230      .   S
    C77    O327      0.71230      .   S
    C174   O328      0.61292      .   S
    C77    O328      0.61292      .   S
    C78    O329      0.73884      .   S
    C72    O329      0.73884      .   S
    C77    O330      0.73777      .   S
    C74    O330      0.73777      .   S
    C47    O331      0.54477      .   S
    C142   O331      0.54477      .   S
    C46    O332      0.54514      .   S
    C141   O332      0.54514      .   S
    C59    O333      0.54508      .   S
    C162   O333      0.54508      .   S
    C58    O334      0.54475      .   S
    C161   O334      0.54475      .   S
    C51    O335      0.54520      .   S
    C148   O335      0.54520      .   S
    C50    O336      0.54455      .   S
    C147   O336      0.54455      .   S
    C54    O337      0.54460      .   S
    C155   O337      0.54460      .   S
    C55    O338      0.54463      .   S
    C156   O338      0.54463  1_455   S
    C2     O339      1.04206      .   S
    C192   O339      1.04206  1_545   S
    C2     O340      1.04147      .   S
    C194   O340      1.04147      .   S
    C2     O341      1.03234      .   S
    C188   O341      1.03234      .   S
    C2     O342      1.02741      .   S
    C191   O342      1.02741      .   S
    C142   O343      0.69542      .   S
    C141   O343      0.69542      .   S
    C142   O344      0.70132      .   S
    C137   O344      0.70132      .   S
    C141   O345      0.70416      .   S
    C140   O345      0.70416      .   S
    C192   O346      0.63774      .   S
    C136   O346      0.63774      .   S
    C148   O347      0.69536      .   S
    C147   O347      0.69536      .   S
    C148   O348      0.70404      .   S
    C143   O348      0.70404      .   S
    C147   O349      0.70080      .   S
    C146   O349      0.70080      .   S
    C161   O350      0.69494      .   S
    C162   O350      0.69494      .   S
    C161   O351      0.70134      .   S
    C160   O351      0.70134      .   S
    C162   O352      0.70501      .   S
    C157   O352      0.70501      .   S
    C72    O353      0.69448      .   S
    C71    O353      0.69448      .   S
    C72    O354      0.70815      .   S
    C73    O354      0.70815      .   S
    C9     O355      0.54382      .   S
    C71    O355      0.54382      .   S
    C156   O356      0.69531      .   S
    C155   O356      0.69531      .   S
    C156   O357      0.70086  1_455   S
    C151   O357      0.70086      .   S
    C155   O358      0.70454      .   S
    C154   O358      0.70454      .   S
    C194   O359      0.63707      .   S
    C149   O359      0.63707      .   S
    C188   O360      0.63710      .   S
    C163   O360      0.63710      .   S
    C191   O361      0.63759      .   S
    C150   O361      0.63759      .   S
    C74    O362      0.70702      .   S
    C73    O362      0.70702      .   S
    C74    O363      0.69605      .   S
    C75    O363      0.69605      .   S
    C10    O364      0.54417      .   S
    C75    O364      0.54417      .   S
    C71    O365      0.70150      .   S
    C70    O365      0.70150      .   S
    C73    O366      0.71221      .   S
    C67    O366      0.71221      .   S
    C75    O367      0.70031      .   S
    C76    O367      0.70031      .   S
    C136   O368      0.74919      .   S
    C137   O368      0.74919      .   S
    C136   O369      0.63734      .   S
    C193   O369      0.63734      .   S
    C137   O370      0.70129      .   S
    C138   O370      0.70129      .   S
    C140   O371      0.73885      .   S
    C143   O371      0.73885      .   S
    C140   O372      0.70418      .   S
    C139   O372      0.70418      .   S
    C143   O373      0.70399      .   S
    C144   O373      0.70399      .   S
    C146   O374      0.74952      .   S
    C149   O374      0.74952      .   S
    C146   O375      0.70100      .   S
    C145   O375      0.70100      .   S
    C149   O376      0.63814      .   S
    C195   O376      0.63814      .   S
    C163   O377      0.74934      .   S
    C160   O377      0.74934      .   S
    C163   O378      0.63718      .   S
    C189   O378      0.63718      .   S
    C151   O379      0.74985      .   S
    C150   O379      0.74985      .   S
    C151   O380      0.70100      .   S
    C152   O380      0.70100  1_455   S
    C150   O381      0.63723      .   S
    C190   O381      0.63723      .   S
    C154   O382      0.73847      .   S
    C157   O382      0.73847      .   S
    C154   O383      0.70449      .   S
    C153   O383      0.70449      .   S
    C160   O384      0.70038      .   S
    C159   O384      0.70038      .   S
    C157   O385      0.70430      .   S
    C158   O385      0.70430      .   S
    C70    O386      0.54387      .   S
    C8     O386      0.54387      .   S
    C70    O387      0.69513      .   S
    C68    O387      0.69513      .   S
    C193   O388      1.04048  1_545   S
    C3     O388      1.04048      .   S
    C67    O389      0.70837      .   S
    C68    O389      0.70837      .   S
    C67    O390      0.70735      .   S
    C66    O390      0.70735      .   S
    C138   O391      0.69519      .   S
    C139   O391      0.69519      .   S
    C138   O392      0.54467      .   S
    C44    O392      0.54467      .   S
    C139   O393      0.54513      .   S
    C45    O393      0.54513      .   S
    C195   O394      1.02712      .   S
    C3     O394      1.02712      .   S
    C144   O395      0.69535      .   S
    C145   O395      0.69535      .   S
    C144   O396      0.54521      .   S
    C48    O396      0.54521      .   S
    C189   O397      1.04673      .   S
    C3     O397      1.04673      .   S
    C145   O398      0.54460      .   S
    C49    O398      0.54460      .   S
    C190   O399      1.03401      .   S
    C3     O399      1.03401      .   S
    C153   O400      0.69533      .   S
    C152   O400      0.69533      .   S
    C153   O401      0.54504      .   S
    C53    O401      0.54504      .   S
    C152   O402      0.48525      .   S
    C52    O402      0.48525      .   S
    C76    O403      0.69598      .   S
    C66    O403      0.69598      .   S
    C76    O404      0.54452      .   S
    C11    O404      0.54452      .   S
    C158   O405      0.69551      .   S
    C159   O405      0.69551      .   S
    C158   O406      0.54503      .   S
    C56    O406      0.54503      .   S
    C159   O407      0.54478      .   S
    C57    O407      0.54478      .   S
    C3     O408      1.03222      .   S
    C168   O408      1.03222      .   S
    C68    O409      0.73855      .   S
    C69    O409      0.73855      .   S
    C66    O410      0.73815      .   S
    C65    O410      0.73815      .   S
    C69    O411      0.61374      .   S
    C173   O411      0.61374      .   S
    C69    O412      0.71120      .   S
    C165   O412      0.71120      .   S
    C65    O413      0.71374      .   S
    C165   O413      0.71374      .   S
    C65    O414      0.61227      .   S
    C172   O414      0.61227      .   S
    C35    O415      0.54418      .   S
    C116   O415      0.54418      .   S
    C168   O416      0.67385      .   S
    C116   O416      0.67385      .   S
    C168   O417      0.67359      .   S
    C112   O417      0.67359      .   S
    C32    O418      0.54490      .   S
    C112   O418      0.54490      .   S
    C165   O419      0.71929      .   S
    C62    O419      0.71929      .   S
    C116   O420      0.69535      .   S
    C115   O420      0.69535      .   S
    C112   O421      0.69444      .   S
    C113   O421      0.69444      .   S
    C0     O422      1.39715      .   S
    C1     O422      1.39715      .   S
    C2     O423      1.39717      .   S
    C3     O423      1.39717      .   S
