# CIF file generated by openbabel 2.4.90, see http://openbabel.sf.net
data_I
_chemical_name_common ''
_cell_length_a 13.72
_cell_length_b 14.236
_cell_length_c 15.975
_cell_angle_alpha 90.004
_cell_angle_beta 89.996
_cell_angle_gamma 89.99
_space_group_name_H-M_alt 'P 1'
_space_group_name_Hall 'P 1'
loop_
    _symmetry_equiv_pos_as_xyz
    x,y,z
loop_
    _atom_site_label
    _atom_site_type_symbol
    _atom_site_fract_x
    _atom_site_fract_y
    _atom_site_fract_z
    _atom_site_occupancy
    H0      H    0.28595   0.03868   0.81118   1.000
    H1      H    0.78638   0.04735   0.80508   1.000
    H2      H    0.27575   0.92130   0.69406   1.000
    H3      H    0.77624   0.92982   0.68800   1.000
    H4      H    0.47429   0.07215   0.80537   1.000
    H5      H    0.97527   0.07487   0.80246   1.000
    H6      H    0.46423   0.95461   0.68830   1.000
    H7      H    0.96513   0.95750   0.68529   1.000
    H8      H    0.46552   0.95936   0.31311   1.000
    H9      H    0.96503   0.95800   0.31144   1.000
    H10     H    0.47563   0.07533   0.19490   1.000
    H11     H    0.97516   0.07418   0.19333   1.000
    H12     H    0.27571   0.92175   0.30294   1.000
    H13     H    0.77486   0.91544   0.29848   1.000
    H14     H    0.28590   0.03790   0.18470   1.000
    H15     H    0.78502   0.03141   0.18030   1.000
    H16     H    0.21461   0.53626   0.68445   1.000
    H17     H    0.71470   0.54282   0.68915   1.000
    H18     H    0.22503   0.42040   0.80269   1.000
    H19     H    0.72487   0.42685   0.80737   1.000
    H20     H    0.02596   0.57520   0.69457   1.000
    H21     H    0.52495   0.57505   0.69446   1.000
    H22     H    0.03612   0.45923   0.81277   1.000
    H23     H    0.53539   0.45916   0.81270   1.000
    H24     H    0.03530   0.45603   0.18643   1.000
    H25     H    0.53594   0.45642   0.18601   1.000
    H26     H    0.02493   0.57359   0.30340   1.000
    H27     H    0.52594   0.57403   0.30293   1.000
    H28     H    0.22482   0.42285   0.19310   1.000
    H29     H    0.72519   0.41631   0.19788   1.000
    H30     H    0.21481   0.54047   0.31004   1.000
    H31     H    0.71482   0.53382   0.31489   1.000
    C32     C    0.13704   0.13315   0.88279   1.000
    C33     C    0.63680   0.13530   0.88168   1.000
    C34     C    0.13115   0.06363   0.81337   1.000
    C35     C    0.63087   0.06640   0.81185   1.000
    C36     C    0.21619   0.02048   0.78304   1.000
    C37     C    0.71635   0.02659   0.77892   1.000
    C38     C    0.21060   0.95544   0.71835   1.000
    C39     C    0.71081   0.96151   0.71428   1.000
    C40     C    0.04040   0.04077   0.77815   1.000
    C41     C    0.53976   0.04049   0.77910   1.000
    C42     C    0.03483   0.97575   0.71345   1.000
    C43     C    0.53424   0.97540   0.71449   1.000
    C44     C    0.11986   0.93261   0.68313   1.000
    C45     C    0.61968   0.93532   0.68180   1.000
    C46     C    0.11394   0.86291   0.61375   1.000
    C47     C    0.61372   0.86495   0.61300   1.000
    C48     C    0.11381   0.86412   0.38340   1.000
    C49     C    0.61393   0.86225   0.38270   1.000
    C50     C    0.11982   0.93324   0.31360   1.000
    C51     C    0.61965   0.93077   0.31247   1.000
    C52     C    0.03471   0.97593   0.28307   1.000
    C53     C    0.53494   0.97553   0.28341   1.000
    C54     C    0.04026   0.04023   0.21784   1.000
    C55     C    0.54049   0.03976   0.21800   1.000
    C56     C    0.21060   0.95568   0.27836   1.000
    C57     C    0.71000   0.95096   0.27524   1.000
    C58     C    0.21616   0.01997   0.21312   1.000
    C59     C    0.71556   0.01520   0.20993   1.000
    C60     C    0.13105   0.06267   0.18250   1.000
    C61     C    0.63088   0.06017   0.18103   1.000
    C62     C    0.13690   0.13168   0.11282   1.000
    C63     C    0.63689   0.12972   0.11167   1.000
    C64     C    0.36329   0.63129   0.61310   1.000
    C65     C    0.86388   0.63379   0.61486   1.000
    C66     C    0.36922   0.56240   0.68286   1.000
    C67     C    0.86981   0.56558   0.68515   1.000
    C68     C    0.28432   0.51898   0.71313   1.000
    C69     C    0.78456   0.52410   0.71683   1.000
    C70     C    0.29004   0.45480   0.77846   1.000
    C71     C    0.79013   0.45989   0.78215   1.000
    C72     C    0.45995   0.54068   0.71873   1.000
    C73     C    0.96072   0.54221   0.71981   1.000
    C74     C    0.46566   0.47650   0.78406   1.000
    C75     C    0.96627   0.47798   0.78510   1.000
    C76     C    0.38077   0.43312   0.81437   1.000
    C77     C    0.88105   0.43625   0.81659   1.000
    C78     C    0.38673   0.36430   0.88420   1.000
    C79     C    0.88702   0.36668   0.88587   1.000
    C80     C    0.38676   0.36303   0.11404   1.000
    C81     C    0.88669   0.36060   0.11580   1.000
    C82     C    0.38091   0.43275   0.18313   1.000
    C83     C    0.88080   0.42948   0.18559   1.000
    C84     C    0.46615   0.47521   0.21380   1.000
    C85     C    0.96569   0.47348   0.21516   1.000
    C86     C    0.46068   0.54038   0.27836   1.000
    C87     C    0.96001   0.53860   0.27976   1.000
    C88     C    0.29007   0.45647   0.21772   1.000
    C89     C    0.79016   0.45125   0.22150   1.000
    C90     C    0.28460   0.52164   0.28220   1.000
    C91     C    0.78447   0.51636   0.28617   1.000
    C92     C    0.36984   0.56397   0.31306   1.000
    C93     C    0.86932   0.56060   0.31555   1.000
    C94     C    0.36393   0.63329   0.38246   1.000
    C95     C    0.86335   0.63070   0.38435   1.000
    O96     O    0.22160   0.15278   0.91129   1.000
    O97     O    0.72145   0.15635   0.90900   1.000
    O98     O    0.02946   0.84365   0.58508   1.000
    O99     O    0.52890   0.84336   0.58647   1.000
    O100    O    0.05683   0.16854   0.90880   1.000
    O101    O    0.55633   0.16868   0.90937   1.000
    O102    O    0.19430   0.82735   0.58830   1.000
    O103    O    0.69420   0.83114   0.58606   1.000
    O104    O    0.02902   0.84324   0.41043   1.000
    O105    O    0.52955   0.84364   0.41203   1.000
    O106    O    0.22160   0.15265   0.08540   1.000
    O107    O    0.72137   0.14929   0.08304   1.000
    O108    O    0.19432   0.83063   0.41060   1.000
    O109    O    0.69434   0.82698   0.40832   1.000
    O110    O    0.05645   0.16541   0.08561   1.000
    O111    O    0.55658   0.16537   0.08606   1.000
    O112    O    0.27885   0.65062   0.58412   1.000
    O113    O    0.77915   0.65442   0.58729   1.000
    O114    O    0.47120   0.34502   0.91311   1.000
    O115    O    0.97176   0.34526   0.91285   1.000
    O116    O    0.44365   0.66659   0.58720   1.000
    O117    O    0.94431   0.66705   0.58701   1.000
    O118    O    0.30636   0.32901   0.91010   1.000
    O119    O    0.80662   0.33280   0.91307   1.000
    O120    O    0.47148   0.34164   0.08697   1.000
    O121    O    0.97113   0.34146   0.08683   1.000
    O122    O    0.27916   0.65432   0.40974   1.000
    O123    O    0.77889   0.65045   0.41302   1.000
    O124    O    0.30635   0.32915   0.08687   1.000
    O125    O    0.80634   0.32535   0.08984   1.000
    O126    O    0.44435   0.66699   0.40992   1.000
    O127    O    0.94367   0.66649   0.40977   1.000
loop_
    _geom_bond_atom_site_label_1
    _geom_bond_atom_site_label_2
    _geom_bond_distance
    _geom_bond_site_symmetry_2
    _ccdc_geom_bond_type
    O107   C63       1.27682      .   S
    O106   C62       1.27740      .   S
    O110   C62       1.27972      .   S
    O111   C63       1.28022      .   S
    O121   C81       1.27682      .   S
    O124   C80       1.28003      .   S
    O120   C80       1.27694      .   S
    O125   C81       1.28027      .   S
    C63    C61       1.48825      .   S
    C62    C60       1.48687      .   S
    C80    C82       1.48653      .   S
    C81    C83       1.48687      .   S
    H15    C59       1.08881      .   S
    C61    C59       1.40450      .   S
    C61    C55       1.40404      .   S
    C60    C58       1.40443      .   S
    C60    C54       1.40436      .   S
    C82    C84       1.40478      .   S
    C82    C88       1.40444      .   S
    H14    C58       1.08931      .   S
    C83    C85       1.40439      .   S
    C83    C89       1.40411      .   S
    H25    C84       1.08874      .   S
    H24    C85       1.08828  1_455   S
    H28    C88       1.08875      .   S
    H11    C54       1.08839  1_655   S
    H10    C55       1.08833      .   S
    H29    C89       1.08841      .   S
    C59    C57       1.38955  1_545   S
    C58    C56       1.38918  1_545   S
    C84    C86       1.38920      .   S
    C85    C87       1.38932      .   S
    C88    C90       1.38818      .   S
    C54    C52       1.38917  1_545   S
    C55    C53       1.39066  1_545   S
    C89    C91       1.39009      .   S
    C57    H13       1.08877      .   S
    C57    C51       1.40455      .   S
    C56    H12       1.08879      .   S
    C56    C50       1.40366      .   S
    C86    H27       1.08877      .   S
    C86    C92       1.40460      .   S
    C87    H26       1.08827  1_655   S
    C87    C93       1.40458      .   S
    C90    H30       1.08915      .   S
    C90    C92       1.40520      .   S
    C52    H9        1.08835  1_455   S
    C52    C50       1.40372      .   S
    C53    C51       1.40429      .   S
    C53    H8        1.08875      .   S
    C91    H31       1.08879      .   S
    C91    C93       1.40445      .   S
    C51    C49       1.48883      .   S
    C92    C94       1.48637      .   S
    C50    C48       1.48950      .   S
    C93    C95       1.48675      .   S
    C94    O122      1.27744      .   S
    C94    O126      1.28072      .   S
    C49    O109      1.27933      .   S
    C49    O105      1.27670      .   S
    C48    O104      1.27602      .   S
    C48    O108      1.27916      .   S
    C95    O127      1.28022      .   S
    C95    O123      1.27725      .   S
    O112   C64       1.27746      .   S
    O98    C46       1.27619      .   S
    O103   C47       1.27904      .   S
    O99    C47       1.27608      .   S
    O117   C65       1.28062      .   S
    O116   C64       1.28042      .   S
    O113   C65       1.27730      .   S
    O102   C46       1.27931      .   S
    C47    C45       1.48934      .   S
    C64    C66       1.48678      .   S
    C46    C44       1.48982      .   S
    C65    C67       1.48688      .   S
    C45    C39       1.40418      .   S
    C45    C43       1.40433      .   S
    C66    C68       1.40460      .   S
    C66    C72       1.40483      .   S
    C44    C42       1.40439      .   S
    C44    C38       1.40442      .   S
    H16    C68       1.08876      .   S
    C67    C69       1.40460      .   S
    C67    C73       1.40454      .   S
    H7     C42       1.08832  1_655   S
    H3     C39       1.08874      .   S
    H6     C43       1.08871      .   S
    H17    C69       1.08864      .   S
    H2     C38       1.08874      .   S
    H21    C72       1.08871      .   S
    H20    C73       1.08842  1_455   S
    C68    C70       1.38931      .   S
    C42    C40       1.38962  1_565   S
    C39    C37       1.38939  1_565   S
    C43    C41       1.38913  1_565   S
    C69    C71       1.38938      .   S
    C38    C36       1.38963  1_565   S
    C72    C74       1.38932      .   S
    C73    C75       1.38918      .   S
    C40    H5        1.08843  1_455   S
    C40    C34       1.40459      .   S
    C70    H18       1.08874      .   S
    C70    C76       1.40486      .   S
    C37    H1        1.08864      .   S
    C37    C35       1.40462      .   S
    C41    H4        1.08890      .   S
    C41    C35       1.40455      .   S
    C71    H19       1.08871      .   S
    C71    C77       1.40438      .   S
    C36    H0        1.08870      .   S
    C36    C34       1.40465      .   S
    C74    H23       1.08875      .   S
    C74    C76       1.40457      .   S
    C75    H22       1.08851  1_655   S
    C75    C77       1.40474      .   S
    C35    C33       1.48761      .   S
    C34    C32       1.48851      .   S
    C76    C78       1.48695      .   S
    C77    C79       1.48743      .   S
    C33    O97       1.27640      .   S
    C33    O101      1.28062      .   S
    C32    O100      1.27955      .   S
    C32    O96       1.27734      .   S
    C78    O118      1.28045      .   S
    C78    O114      1.27736      .   S
    C79    O115      1.27690      .   S
    C79    O119      1.27998      .   S
