# CIF file generated by openbabel 2.4.90, see http://openbabel.sf.net
data_I
_chemical_name_common ''
_cell_length_a 13.72
_cell_length_b 14.236
_cell_length_c 15.975
_cell_angle_alpha 90.004
_cell_angle_beta 89.996
_cell_angle_gamma 89.99
_space_group_name_H-M_alt 'P 1'
_space_group_name_Hall 'P 1'
loop_
    _symmetry_equiv_pos_as_xyz
    x,y,z
loop_
    _atom_site_label
    _atom_site_type_symbol
    _atom_site_fract_x
    _atom_site_fract_y
    _atom_site_fract_z
    _atom_site_occupancy
    O0      O    0.39189   0.19284   0.99856   1.000
    O1      O    0.89200   0.19293   0.99680   1.000
    O2      O    0.35839   0.80261   0.49913   1.000
    O3      O    0.85839   0.80268   0.49789   1.000
    O4      O    0.10849   0.69188   0.49717   1.000
    O5      O    0.60848   0.69186   0.49970   1.000
    O6      O    0.14196   0.30378   0.99933   1.000
    O7      O    0.64184   0.30384   0.99986   1.000
