# CIF file generated by openbabel 2.4.90, see http://openbabel.sf.net
data_I
_chemical_name_common ''
_cell_length_a 13.72
_cell_length_b 14.236
_cell_length_c 15.975
_cell_angle_alpha 90.004
_cell_angle_beta 89.996
_cell_angle_gamma 89.99
_space_group_name_H-M_alt 'P 1'
_space_group_name_Hall 'P 1'
loop_
    _symmetry_equiv_pos_as_xyz
    x,y,z
loop_
    _atom_site_label
    _atom_site_type_symbol
    _atom_site_fract_x
    _atom_site_fract_y
    _atom_site_fract_z
    _atom_site_occupancy
    C0      C    0.28100   0.23426   0.99849   1.000
    C1      C    0.78114   0.23439   0.99845   1.000
    C2      C    0.46926   0.76096   0.49895   1.000
    C3      C    0.96923   0.76095   0.49799   1.000
    C4      C    0.21945   0.73334   0.49800   1.000
    C5      C    0.71945   0.73334   0.49886   1.000
    C6      C    0.03119   0.26195   0.99852   1.000
    C7      C    0.53117   0.26187   0.99900   1.000
    C8      C    0.28595   0.03868   0.81118   1.000
    C9      C    0.78638   0.04735   0.80508   1.000
    C10     C    0.27575   0.92130   0.69406   1.000
    C11     C    0.77624   0.92982   0.68800   1.000
    C12     C    0.47429   0.07215   0.80537   1.000
    C13     C    0.97527   0.07487   0.80246   1.000
    C14     C    0.46423   0.95461   0.68830   1.000
    C15     C    0.96513   0.95750   0.68529   1.000
    C16     C    0.46552   0.95936   0.31311   1.000
    C17     C    0.96503   0.95800   0.31144   1.000
    C18     C    0.47563   0.07533   0.19490   1.000
    C19     C    0.97516   0.07418   0.19333   1.000
    C20     C    0.27571   0.92175   0.30294   1.000
    C21     C    0.77486   0.91544   0.29848   1.000
    C22     C    0.28590   0.03790   0.18470   1.000
    C23     C    0.78502   0.03141   0.18030   1.000
    C24     C    0.21461   0.53626   0.68445   1.000
    C25     C    0.71470   0.54282   0.68915   1.000
    C26     C    0.22503   0.42040   0.80269   1.000
    C27     C    0.72487   0.42685   0.80737   1.000
    C28     C    0.02596   0.57520   0.69457   1.000
    C29     C    0.52495   0.57505   0.69446   1.000
    C30     C    0.03612   0.45923   0.81277   1.000
    C31     C    0.53539   0.45916   0.81270   1.000
    C32     C    0.03530   0.45603   0.18643   1.000
    C33     C    0.53594   0.45642   0.18601   1.000
    C34     C    0.02493   0.57359   0.30340   1.000
    C35     C    0.52594   0.57403   0.30293   1.000
    C36     C    0.22482   0.42285   0.19310   1.000
    C37     C    0.72519   0.41631   0.19788   1.000
    C38     C    0.21481   0.54047   0.31004   1.000
    C39     C    0.71482   0.53382   0.31489   1.000
    C40     C    0.13704   0.13315   0.88279   1.000
    C41     C    0.63680   0.13530   0.88168   1.000
    C42     C    0.13115   0.06363   0.81337   1.000
    C43     C    0.63087   0.06640   0.81185   1.000
    C44     C    0.21619   0.02048   0.78304   1.000
    C45     C    0.71635   0.02659   0.77892   1.000
    C46     C    0.21060   0.95544   0.71835   1.000
    C47     C    0.71081   0.96151   0.71428   1.000
    C48     C    0.04040   0.04077   0.77815   1.000
    C49     C    0.53976   0.04049   0.77910   1.000
    C50     C    0.03483   0.97575   0.71345   1.000
    C51     C    0.53424   0.97540   0.71449   1.000
    C52     C    0.11986   0.93261   0.68313   1.000
    C53     C    0.61968   0.93532   0.68180   1.000
    C54     C    0.11394   0.86291   0.61375   1.000
    C55     C    0.61372   0.86495   0.61300   1.000
    C56     C    0.11381   0.86412   0.38340   1.000
    C57     C    0.61393   0.86225   0.38270   1.000
    C58     C    0.11982   0.93324   0.31360   1.000
    C59     C    0.61965   0.93077   0.31247   1.000
    C60     C    0.03471   0.97593   0.28307   1.000
    C61     C    0.53494   0.97553   0.28341   1.000
    C62     C    0.04026   0.04023   0.21784   1.000
    C63     C    0.54049   0.03976   0.21800   1.000
    C64     C    0.21060   0.95568   0.27836   1.000
    C65     C    0.71000   0.95096   0.27524   1.000
    C66     C    0.21616   0.01997   0.21312   1.000
    C67     C    0.71556   0.01520   0.20993   1.000
    C68     C    0.13105   0.06267   0.18250   1.000
    C69     C    0.63088   0.06017   0.18103   1.000
    C70     C    0.13690   0.13168   0.11282   1.000
    C71     C    0.63689   0.12972   0.11167   1.000
    C72     C    0.36329   0.63129   0.61310   1.000
    C73     C    0.86388   0.63379   0.61486   1.000
    C74     C    0.36922   0.56240   0.68286   1.000
    C75     C    0.86981   0.56558   0.68515   1.000
    C76     C    0.28432   0.51898   0.71313   1.000
    C77     C    0.78456   0.52410   0.71683   1.000
    C78     C    0.29004   0.45480   0.77846   1.000
    C79     C    0.79013   0.45989   0.78215   1.000
    C80     C    0.45995   0.54068   0.71873   1.000
    C81     C    0.96072   0.54221   0.71981   1.000
    C82     C    0.46566   0.47650   0.78406   1.000
    C83     C    0.96627   0.47798   0.78510   1.000
    C84     C    0.38077   0.43312   0.81437   1.000
    C85     C    0.88105   0.43625   0.81659   1.000
    C86     C    0.38673   0.36430   0.88420   1.000
    C87     C    0.88702   0.36668   0.88587   1.000
    C88     C    0.38676   0.36303   0.11404   1.000
    C89     C    0.88669   0.36060   0.11580   1.000
    C90     C    0.38091   0.43275   0.18313   1.000
    C91     C    0.88080   0.42948   0.18559   1.000
    C92     C    0.46615   0.47521   0.21380   1.000
    C93     C    0.96569   0.47348   0.21516   1.000
    C94     C    0.46068   0.54038   0.27836   1.000
    C95     C    0.96001   0.53860   0.27976   1.000
    C96     C    0.29007   0.45647   0.21772   1.000
    C97     C    0.79016   0.45125   0.22150   1.000
    C98     C    0.28460   0.52164   0.28220   1.000
    C99     C    0.78447   0.51636   0.28617   1.000
    C100    C    0.36984   0.56397   0.31306   1.000
    C101    C    0.86932   0.56060   0.31555   1.000
    C102    C    0.36393   0.63329   0.38246   1.000
    C103    C    0.86335   0.63070   0.38435   1.000
    C104    C    0.39189   0.19284   0.99856   1.000
    C105    C    0.89200   0.19293   0.99680   1.000
    C106    C    0.22160   0.15278   0.91129   1.000
    C107    C    0.72145   0.15635   0.90900   1.000
    C108    C    0.02946   0.84365   0.58508   1.000
    C109    C    0.52890   0.84336   0.58647   1.000
    C110    C    0.05683   0.16854   0.90880   1.000
    C111    C    0.55633   0.16868   0.90937   1.000
    C112    C    0.19430   0.82735   0.58830   1.000
    C113    C    0.69420   0.83114   0.58606   1.000
    C114    C    0.35839   0.80261   0.49913   1.000
    C115    C    0.85839   0.80268   0.49789   1.000
    C116    C    0.02902   0.84324   0.41043   1.000
    C117    C    0.52955   0.84364   0.41203   1.000
    C118    C    0.22160   0.15265   0.08540   1.000
    C119    C    0.72137   0.14929   0.08304   1.000
    C120    C    0.19432   0.83063   0.41060   1.000
    C121    C    0.69434   0.82698   0.40832   1.000
    C122    C    0.05645   0.16541   0.08561   1.000
    C123    C    0.55658   0.16537   0.08606   1.000
    C124    C    0.10849   0.69188   0.49717   1.000
    C125    C    0.60848   0.69186   0.49970   1.000
    C126    C    0.27885   0.65062   0.58412   1.000
    C127    C    0.77915   0.65442   0.58729   1.000
    C128    C    0.47120   0.34502   0.91311   1.000
    C129    C    0.97176   0.34526   0.91285   1.000
    C130    C    0.44365   0.66659   0.58720   1.000
    C131    C    0.94431   0.66705   0.58701   1.000
    C132    C    0.30636   0.32901   0.91010   1.000
    C133    C    0.80662   0.33280   0.91307   1.000
    C134    C    0.14196   0.30378   0.99933   1.000
    C135    C    0.64184   0.30384   0.99986   1.000
    C136    C    0.47148   0.34164   0.08697   1.000
    C137    C    0.97113   0.34146   0.08683   1.000
    C138    C    0.27916   0.65432   0.40974   1.000
    C139    C    0.77889   0.65045   0.41302   1.000
    C140    C    0.30635   0.32915   0.08687   1.000
    C141    C    0.80634   0.32535   0.08984   1.000
    C142    C    0.44435   0.66699   0.40992   1.000
    C143    C    0.94367   0.66649   0.40977   1.000
    O144    O    0.67913   0.13950   0.09735   1.000
    O145    O    0.75126   0.19184   0.04074   1.000
    O146    O    0.17925   0.14216   0.09911   1.000
    O147    O    0.25130   0.19345   0.04194   1.000
    O148    O    0.09668   0.14855   0.09921   1.000
    O149    O    0.04382   0.21368   0.04206   1.000
    O150    O    0.59674   0.14754   0.09886   1.000
    O151    O    0.54388   0.21362   0.04253   1.000
    O152    O    0.92891   0.35103   0.10131   1.000
    O153    O    0.00116   0.30171   0.04267   1.000
    O154    O    0.34656   0.34609   0.10045   1.000
    O155    O    0.29368   0.28170   0.04268   1.000
    O156    O    0.42912   0.35233   0.10050   1.000
    O157    O    0.50133   0.30175   0.04298   1.000
    O158    O    0.84652   0.34298   0.10282   1.000
    O159    O    0.79374   0.27987   0.04414   1.000
    O160    O    0.63389   0.09495   0.14635   1.000
    O161    O    0.13397   0.09717   0.14766   1.000
    O162    O    0.38384   0.39789   0.14858   1.000
    O163    O    0.88374   0.39504   0.15069   1.000
    O164    O    0.75029   0.02331   0.19511   1.000
    O165    O    0.67322   0.03769   0.19548   1.000
    O166    O    0.58569   0.04996   0.19951   1.000
    O167    O    0.17361   0.04132   0.19781   1.000
    O168    O    0.08565   0.05145   0.20017   1.000
    O169    O    0.42353   0.45398   0.19846   1.000
    O170    O    0.33549   0.44461   0.20042   1.000
    O171    O    0.25103   0.02893   0.19891   1.000
    O172    O    0.92324   0.45148   0.20037   1.000
    O173    O    0.83548   0.44036   0.20354   1.000
    O174    O    0.50104   0.46582   0.19990   1.000
    O175    O    0.00049   0.46476   0.20079   1.000
    O176    O    0.25744   0.43966   0.20541   1.000
    O177    O    0.00771   0.05721   0.20558   1.000
    O178    O    0.50806   0.05754   0.20645   1.000
    O179    O    0.75767   0.43378   0.20969   1.000
    O180    O    0.71278   0.98308   0.24258   1.000
    O181    O    0.21338   0.98783   0.24574   1.000
    O182    O    0.46341   0.50780   0.24608   1.000
    O183    O    0.96285   0.50604   0.24746   1.000
    O184    O    0.28733   0.48905   0.24996   1.000
    O185    O    0.03749   0.00808   0.25045   1.000
    O186    O    0.53772   0.00764   0.25070   1.000
    O187    O    0.78732   0.48381   0.25383   1.000
    O188    O    0.74243   0.93320   0.28686   1.000
    O189    O    0.66483   0.94087   0.29385   1.000
    O190    O    0.24316   0.93872   0.29065   1.000
    O191    O    0.16521   0.94446   0.29598   1.000
    O192    O    0.49331   0.55721   0.29064   1.000
    O193    O    0.41526   0.55218   0.29571   1.000
    O194    O    0.99247   0.55609   0.29158   1.000
    O195    O    0.91467   0.54960   0.29765   1.000
    O196    O    0.24970   0.53105   0.29612   1.000
    O197    O    0.32722   0.54280   0.29763   1.000
    O198    O    0.99987   0.96697   0.29725   1.000
    O199    O    0.07727   0.95459   0.29833   1.000
    O200    O    0.57730   0.95315   0.29794   1.000
    O201    O    0.50023   0.96744   0.29826   1.000
    O202    O    0.74965   0.52509   0.30053   1.000
    O203    O    0.82690   0.53848   0.30086   1.000
    O204    O    0.61679   0.89651   0.34758   1.000
    O205    O    0.36689   0.59863   0.34776   1.000
    O206    O    0.11682   0.89868   0.34850   1.000
    O207    O    0.86634   0.59565   0.34995   1.000
    O208    O    0.32154   0.64380   0.39610   1.000
    O209    O    0.40414   0.65014   0.39619   1.000
    O210    O    0.65414   0.84462   0.39551   1.000
    O211    O    0.57174   0.85294   0.39736   1.000
    O212    O    0.07142   0.85368   0.39691   1.000
    O213    O    0.15407   0.84738   0.39700   1.000
    O214    O    0.90351   0.64860   0.39706   1.000
    O215    O    0.82112   0.64058   0.39868   1.000
    O216    O    0.70690   0.78016   0.45359   1.000
    O217    O    0.24931   0.69383   0.45387   1.000
    O218    O    0.95645   0.71372   0.45388   1.000
    O219    O    0.45680   0.71397   0.45443   1.000
    O220    O    0.99913   0.80210   0.45421   1.000
    O221    O    0.20689   0.78199   0.45430   1.000
    O222    O    0.49941   0.80230   0.45549   1.000
    O223    O    0.74917   0.69190   0.45594   1.000
    O224    O    0.03886   0.72641   0.49758   1.000
    O225    O    0.16397   0.71261   0.49758   1.000
    O226    O    0.91381   0.78182   0.49794   1.000
    O227    O    0.78892   0.76801   0.49837   1.000
    O228    O    0.99935   0.80230   0.54153   1.000
    O229    O    0.95677   0.71400   0.54250   1.000
    O230    O    0.28892   0.76798   0.49856   1.000
    O231    O    0.24915   0.69198   0.54106   1.000
    O232    O    0.20687   0.78034   0.54315   1.000
    O233    O    0.66397   0.71260   0.49928   1.000
    O234    O    0.70683   0.78224   0.54246   1.000
    O235    O    0.74930   0.69388   0.54307   1.000
    O236    O    0.41383   0.78178   0.49904   1.000
    O237    O    0.53887   0.72641   0.49932   1.000
    O238    O    0.49908   0.80216   0.54271   1.000
    O239    O    0.45646   0.71377   0.54307   1.000
    O240    O    0.32107   0.64096   0.59861   1.000
    O241    O    0.07170   0.85328   0.59941   1.000
    O242    O    0.65396   0.84804   0.59953   1.000
    O243    O    0.57131   0.85416   0.59973   1.000
    O244    O    0.90409   0.65042   0.60093   1.000
    O245    O    0.40347   0.64894   0.60015   1.000
    O246    O    0.82151   0.64411   0.60107   1.000
    O247    O    0.15412   0.84513   0.60102   1.000
    O248    O    0.61670   0.90013   0.64740   1.000
    O249    O    0.36625   0.59685   0.64798   1.000
    O250    O    0.11690   0.89776   0.64844   1.000
    O251    O    0.86684   0.59969   0.65000   1.000
    O252    O    0.66525   0.94842   0.69804   1.000
    O253    O    0.57696   0.95536   0.69814   1.000
    O254    O    0.32677   0.54069   0.69799   1.000
    O255    O    0.41458   0.55154   0.70079   1.000
    O256    O    0.07735   0.95418   0.69829   1.000
    O257    O    0.16523   0.94403   0.70074   1.000
    O258    O    0.24946   0.52762   0.69879   1.000
    O259    O    0.82719   0.54484   0.70099   1.000
    O260    O    0.91526   0.55389   0.70248   1.000
    O261    O    0.99998   0.96662   0.69937   1.000
    O262    O    0.74352   0.94567   0.70114   1.000
    O263    O    0.49924   0.96500   0.70139   1.000
    O264    O    0.74963   0.53346   0.70299   1.000
    O265    O    0.24318   0.93837   0.70620   1.000
    O266    O    0.49245   0.55786   0.70659   1.000
    O267    O    0.99334   0.55871   0.70719   1.000
    O268    O    0.28718   0.48689   0.74579   1.000
    O269    O    0.03762   0.00826   0.74580   1.000
    O270    O    0.71358   0.99405   0.74660   1.000
    O271    O    0.53700   0.00795   0.74679   1.000
    O272    O    0.78735   0.49200   0.74949   1.000
    O273    O    0.21340   0.98796   0.75069   1.000
    O274    O    0.46281   0.50859   0.75139   1.000
    O275    O    0.96349   0.51009   0.75245   1.000
    O276    O    0.00784   0.05782   0.79030   1.000
    O277    O    0.08578   0.05220   0.79576   1.000
    O278    O    0.25754   0.43760   0.79057   1.000
    O279    O    0.33541   0.44396   0.79641   1.000
    O280    O    0.75136   0.03697   0.79200   1.000
    O281    O    0.67361   0.04650   0.79538   1.000
    O282    O    0.50702   0.05632   0.79223   1.000
    O283    O    0.58532   0.05345   0.79547   1.000
    O284    O    0.75750   0.44337   0.79476   1.000
    O285    O    0.83559   0.44807   0.79937   1.000
    O286    O    0.25107   0.02958   0.79711   1.000
    O287    O    0.17367   0.04206   0.79820   1.000
    O288    O    0.50052   0.46783   0.79838   1.000
    O289    O    0.42321   0.45481   0.79921   1.000
    O290    O    0.00120   0.46861   0.79893   1.000
    O291    O    0.92366   0.45711   0.80084   1.000
    O292    O    0.63384   0.10085   0.84676   1.000
    O293    O    0.13410   0.09839   0.84808   1.000
    O294    O    0.38375   0.39871   0.84928   1.000
    O295    O    0.88404   0.40146   0.85123   1.000
    O296    O    0.67912   0.14583   0.89534   1.000
    O297    O    0.59656   0.15199   0.89552   1.000
    O298    O    0.09693   0.15084   0.89579   1.000
    O299    O    0.17932   0.14296   0.89704   1.000
    O300    O    0.34655   0.34665   0.89715   1.000
    O301    O    0.42897   0.35466   0.89865   1.000
    O302    O    0.92939   0.35597   0.89936   1.000
    O303    O    0.84682   0.34974   0.89947   1.000
    O304    O    0.04401   0.21524   0.95366   1.000
    O305    O    0.75129   0.19537   0.95372   1.000
    O306    O    0.54375   0.21527   0.95418   1.000
    O307    O    0.29368   0.28163   0.95429   1.000
    O308    O    0.25130   0.19352   0.95489   1.000
    O309    O    0.00147   0.30361   0.95568   1.000
    O310    O    0.79388   0.28360   0.95576   1.000
    O311    O    0.50119   0.30345   0.95605   1.000
    O312    O    0.83657   0.21366   0.99762   1.000
    O313    O    0.96160   0.22744   0.99766   1.000
    O314    O    0.71149   0.26912   0.99915   1.000
    O315    O    0.33645   0.21355   0.99852   1.000
    O316    O    0.21148   0.26902   0.99891   1.000
    O317    O    0.08657   0.28287   0.99892   1.000
    O318    O    0.46153   0.22736   0.99878   1.000
    O319    O    0.58651   0.28286   0.99943   1.000
loop_
    _geom_bond_atom_site_label_1
    _geom_bond_atom_site_label_2
    _geom_bond_distance
    _geom_bond_site_symmetry_2
    _ccdc_geom_bond_type
    C119   O144      0.63841      .   S
    C71    O144      0.63841      .   S
    C119   O145      0.99584      .   S
    C1     O145      0.99584  1_556   S
    C118   O146      0.63870      .   S
    C70    O146      0.63870      .   S
    C118   O147      0.99271      .   S
    C0     O147      0.99271  1_556   S
    C122   O148      0.63986      .   S
    C70    O148      0.63986      .   S
    C122   O149      0.99305      .   S
    C6     O149      0.99305  1_556   S
    C123   O150      0.64011      .   S
    C71    O150      0.64011      .   S
    C123   O151      0.99289      .   S
    C7     O151      0.99289  1_556   S
    C137   O152      0.63841      .   S
    C89    O152      0.63841      .   S
    C137   O153      0.99372  1_655   S
    C6     O153      0.99372  1_556   S
    C140   O154      0.64001      .   S
    C88    O154      0.64001      .   S
    C140   O155      0.99235      .   S
    C0     O155      0.99235  1_556   S
    C136   O156      0.63847      .   S
    C88    O156      0.63847      .   S
    C136   O157      0.99178      .   S
    C7     O157      0.99178  1_556   S
    C141   O158      0.64014      .   S
    C89    O158      0.64014      .   S
    C141   O159      0.99093      .   S
    C1     O159      0.99093  1_556   S
    C71    O160      0.74413      .   S
    C69    O160      0.74413      .   S
    C70    O161      0.74344      .   S
    C68    O161      0.74344      .   S
    C88    O162      0.74326      .   S
    C90    O162      0.74326      .   S
    C89    O163      0.74344      .   S
    C91    O163      0.74344      .   S
    C23    O164      0.54440      .   S
    C67    O164      0.54440      .   S
    C69    O165      0.70225      .   S
    C67    O165      0.70225      .   S
    C69    O166      0.70202      .   S
    C63    O166      0.70202      .   S
    C68    O167      0.70221      .   S
    C66    O167      0.70221      .   S
    C68    O168      0.70218      .   S
    C62    O168      0.70218      .   S
    C90    O169      0.70239      .   S
    C92    O169      0.70239      .   S
    C90    O170      0.70222      .   S
    C96    O170      0.70222      .   S
    C22    O171      0.54465      .   S
    C66    O171      0.54465      .   S
    C91    O172      0.70220      .   S
    C93    O172      0.70220      .   S
    C91    O173      0.70205      .   S
    C97    O173      0.70205      .   S
    C33    O174      0.54437      .   S
    C92    O174      0.54437      .   S
    C32    O175      0.54414      .   S
    C93    O175      0.54414  1_655   S
    C36    O176      0.54437      .   S
    C96    O176      0.54437      .   S
    C19    O177      0.54419  1_655   S
    C62    O177      0.54419      .   S
    C18    O178      0.54416      .   S
    C63    O178      0.54416      .   S
    C37    O179      0.54420      .   S
    C97    O179      0.54420      .   S
    C67    O180      0.69478  1_545   S
    C65    O180      0.69478      .   S
    C66    O181      0.69459  1_545   S
    C64    O181      0.69459      .   S
    C92    O182      0.69460      .   S
    C94    O182      0.69460      .   S
    C93    O183      0.69466      .   S
    C95    O183      0.69466      .   S
    C96    O184      0.69409      .   S
    C98    O184      0.69409      .   S
    C62    O185      0.69459      .   S
    C60    O185      0.69459  1_565   S
    C63    O186      0.69533      .   S
    C61    O186      0.69533  1_565   S
    C97    O187      0.69504      .   S
    C99    O187      0.69504      .   S
    C65    O188      0.54438      .   S
    C21    O188      0.54438      .   S
    C65    O189      0.70227      .   S
    C59    O189      0.70227      .   S
    C64    O190      0.54439      .   S
    C20    O190      0.54439      .   S
    C64    O191      0.70183      .   S
    C58    O191      0.70183      .   S
    C94    O192      0.54439      .   S
    C35    O192      0.54439      .   S
    C94    O193      0.70230      .   S
    C100   O193      0.70230      .   S
    C95    O194      0.54413      .   S
    C34    O194      0.54413  1_455   S
    C95    O195      0.70229      .   S
    C101   O195      0.70229      .   S
    C98    O196      0.54458      .   S
    C38    O196      0.54458      .   S
    C98    O197      0.70260      .   S
    C100   O197      0.70260      .   S
    C60    O198      0.54418  1_455   S
    C17    O198      0.54418      .   S
    C60    O199      0.70186      .   S
    C58    O199      0.70186      .   S
    C61    O200      0.70215      .   S
    C59    O200      0.70215      .   S
    C61    O201      0.54438      .   S
    C16    O201      0.54438      .   S
    C99    O202      0.54440      .   S
    C39    O202      0.54440      .   S
    C99    O203      0.70222      .   S
    C101   O203      0.70222      .   S
    C59    O204      0.74441      .   S
    C57    O204      0.74441      .   S
    C100   O205      0.74319      .   S
    C102   O205      0.74319      .   S
    C58    O206      0.74475      .   S
    C56    O206      0.74475      .   S
    C101   O207      0.74337      .   S
    C103   O207      0.74337      .   S
    C102   O208      0.63872      .   S
    C138   O208      0.63872      .   S
    C102   O209      0.64036      .   S
    C142   O209      0.64036      .   S
    C57    O210      0.63967      .   S
    C121   O210      0.63967      .   S
    C57    O211      0.63835      .   S
    C117   O211      0.63835      .   S
    C56    O212      0.63801      .   S
    C116   O212      0.63801      .   S
    C56    O213      0.63958      .   S
    C120   O213      0.63958      .   S
    C103   O214      0.64011      .   S
    C143   O214      0.64011      .   S
    C103   O215      0.63863      .   S
    C139   O215      0.63863      .   S
    C121   O216      0.99846      .   S
    C5     O216      0.99846      .   S
    C138   O217      0.99045      .   S
    C4     O217      0.99045      .   S
    C143   O218      0.98963      .   S
    C3     O218      0.98963      .   S
    C142   O219      0.99112      .   S
    C2     O219      0.99112      .   S
    C116   O220      1.00030  1_455   S
    C3     O220      1.00030      .   S
    C120   O221      0.99833      .   S
    C4     O221      0.99833      .   S
    C117   O222      0.99977      .   S
    C2     O222      0.99977      .   S
    C139   O223      0.99215      .   S
    C5     O223      0.99215      .   S
    C124   O224      1.07432      .   S
    C3     O224      1.07432  1_655   S
    C124   O225      0.81648      .   S
    C4     O225      0.81648      .   S
    C115   O226      0.81629      .   S
    C3     O226      0.81629      .   S
    C115   O227      1.07346      .   S
    C5     O227      1.07346      .   S
    C3     O228      1.00060      .   S
    C108   O228      1.00060  1_455   S
    C3     O229      0.99077      .   S
    C131   O229      0.99077      .   S
    C4     O230      1.07322      .   S
    C114   O230      1.07322      .   S
    C4     O231      0.99298      .   S
    C126   O231      0.99298      .   S
    C4     O232      0.99880      .   S
    C112   O232      0.99880      .   S
    C5     O233      0.81657      .   S
    C125   O233      0.81657      .   S
    C5     O234      0.99977      .   S
    C113   O234      0.99977      .   S
    C5     O235      0.99107      .   S
    C127   O235      0.99107      .   S
    C2     O236      0.81626      .   S
    C114   O236      0.81626      .   S
    C2     O237      1.07419      .   S
    C125   O237      1.07419      .   S
    C2     O238      1.00011      .   S
    C109   O238      1.00011      .   S
    C2     O239      0.98948      .   S
    C130   O239      0.98948      .   S
    C126   O240      0.63873      .   S
    C72    O240      0.63873      .   S
    C108   O241      0.63810      .   S
    C54    O241      0.63810      .   S
    C113   O242      0.63952      .   S
    C55    O242      0.63952      .   S
    C109   O243      0.63804      .   S
    C55    O243      0.63804      .   S
    C131   O244      0.64031      .   S
    C73    O244      0.64031      .   S
    C130   O245      0.64021      .   S
    C72    O245      0.64021      .   S
    C127   O246      0.63865      .   S
    C73    O246      0.63865      .   S
    C112   O247      0.63966      .   S
    C54    O247      0.63966      .   S
    C55    O248      0.74467      .   S
    C53    O248      0.74467      .   S
    C72    O249      0.74339      .   S
    C74    O249      0.74339      .   S
    C54    O250      0.74491      .   S
    C52    O250      0.74491      .   S
    C73    O251      0.74344      .   S
    C75    O251      0.74344      .   S
    C53    O252      0.70209      .   S
    C47    O252      0.70209      .   S
    C53    O253      0.70216      .   S
    C51    O253      0.70216      .   S
    C74    O254      0.70230      .   S
    C76    O254      0.70230      .   S
    C74    O255      0.70241      .   S
    C80    O255      0.70241      .   S
    C52    O256      0.70219      .   S
    C50    O256      0.70219      .   S
    C52    O257      0.70221      .   S
    C46    O257      0.70221      .   S
    C24    O258      0.54438      .   S
    C76    O258      0.54438      .   S
    C75    O259      0.70230      .   S
    C77    O259      0.70230      .   S
    C75    O260      0.70227      .   S
    C81    O260      0.70227      .   S
    C15    O261      0.54416      .   S
    C50    O261      0.54416  1_455   S
    C11    O262      0.54437      .   S
    C47    O262      0.54437      .   S
    C14    O263      0.54436      .   S
    C51    O263      0.54436      .   S
    C25    O264      0.54432      .   S
    C77    O264      0.54432      .   S
    C10    O265      0.54437      .   S
    C46    O265      0.54437      .   S
    C29    O266      0.54436      .   S
    C80    O266      0.54436      .   S
    C28    O267      0.54421  1_455   S
    C81    O267      0.54421      .   S
    C76    O268      0.69466      .   S
    C78    O268      0.69466      .   S
    C50    O269      0.69481  1_565   S
    C48    O269      0.69481      .   S
    C47    O270      0.69470      .   S
    C45    O270      0.69470  1_545   S
    C51    O271      0.69457  1_565   S
    C49    O271      0.69457      .   S
    C77    O272      0.69469      .   S
    C79    O272      0.69469      .   S
    C46    O273      0.69482      .   S
    C44    O273      0.69482  1_545   S
    C80    O274      0.69466      .   S
    C82    O274      0.69466      .   S
    C81    O275      0.69459      .   S
    C83    O275      0.69459      .   S
    C48    O276      0.54422      .   S
    C13    O276      0.54422  1_655   S
    C48    O277      0.70230      .   S
    C42    O277      0.70230      .   S
    C78    O278      0.54437      .   S
    C26    O278      0.54437      .   S
    C78    O279      0.70243      .   S
    C84    O279      0.70243      .   S
    C45    O280      0.54432      .   S
    C9     O280      0.54432      .   S
    C45    O281      0.70231      .   S
    C43    O281      0.70231      .   S
    C49    O282      0.54445      .   S
    C12    O282      0.54445      .   S
    C49    O283      0.70227      .   S
    C43    O283      0.70227      .   S
    C79    O284      0.54436      .   S
    C27    O284      0.54436      .   S
    C79    O285      0.70219      .   S
    C85    O285      0.70219      .   S
    C44    O286      0.54435      .   S
    C8     O286      0.54435      .   S
    C44    O287      0.70233      .   S
    C42    O287      0.70233      .   S
    C82    O288      0.54437      .   S
    C31    O288      0.54437      .   S
    C82    O289      0.70228      .   S
    C84    O289      0.70228      .   S
    C83    O290      0.54426  1_655   S
    C30    O290      0.54426      .   S
    C83    O291      0.70237      .   S
    C85    O291      0.70237      .   S
    C43    O292      0.74380      .   S
    C41    O292      0.74380      .   S
    C42    O293      0.74425      .   S
    C40    O293      0.74425      .   S
    C84    O294      0.74348      .   S
    C86    O294      0.74348      .   S
    C85    O295      0.74371      .   S
    C87    O295      0.74371      .   S
    C41    O296      0.63820      .   S
    C107   O296      0.63820      .   S
    C41    O297      0.64031      .   S
    C111   O297      0.64031      .   S
    C40    O298      0.63978      .   S
    C110   O298      0.63978      .   S
    C40    O299      0.63867      .   S
    C106   O299      0.63867      .   S
    C86    O300      0.64022      .   S
    C132   O300      0.64022      .   S
    C86    O301      0.63868      .   S
    C128   O301      0.63868      .   S
    C87    O302      0.63845      .   S
    C129   O302      0.63845      .   S
    C87    O303      0.63999      .   S
    C133   O303      0.63999      .   S
    C110   O304      0.99323      .   S
    C6     O304      0.99323      .   S
    C107   O305      0.99340      .   S
    C1     O305      0.99340      .   S
    C111   O306      0.99105      .   S
    C7     O306      0.99105      .   S
    C132   O307      0.99180      .   S
    C0     O307      0.99180      .   S
    C106   O308      0.99379      .   S
    C0     O308      0.99379      .   S
    C129   O309      0.99304  1_655   S
    C6     O309      0.99304      .   S
    C133   O310      0.99318      .   S
    C1     O310      0.99318      .   S
    C128   O311      0.99513      .   S
    C7     O311      0.99513      .   S
    C105   O312      0.81581      .   S
    C1     O312      0.81581      .   S
    C105   O313      1.07396      .   S
    C6     O313      1.07396  1_455   S
    C1     O314      1.07591      .   S
    C135   O314      1.07591      .   S
    C0     O315      0.81579      .   S
    C104   O315      0.81579      .   S
    C0     O316      1.07453      .   S
    C134   O316      1.07453      .   S
    C6     O317      0.81620      .   S
    C134   O317      0.81620      .   S
    C104   O318      1.07447      .   S
    C7     O318      1.07447      .   S
    C7     O319      0.81591      .   S
    C135   O319      0.81591      .   S
