# CIF file generated by openbabel 2.4.90, see http://openbabel.sf.net
data_I
_chemical_name_common ''
_cell_length_a 13.72
_cell_length_b 14.236
_cell_length_c 15.975
_cell_angle_alpha 90.004
_cell_angle_beta 89.996
_cell_angle_gamma 89.99
_space_group_name_H-M_alt 'P 1'
_space_group_name_Hall 'P 1'
loop_
    _symmetry_equiv_pos_as_xyz
    x,y,z
loop_
    _atom_site_label
    _atom_site_type_symbol
    _atom_site_fract_x
    _atom_site_fract_y
    _atom_site_fract_z
    _atom_site_occupancy
    Zr0     Zr   0.28100   0.23426   0.99849   1.000
    Zr1     Zr   0.78114   0.23439   0.99845   1.000
    Zr2     Zr   0.46926   0.76096   0.49895   1.000
    Zr3     Zr   0.96923   0.76095   0.49799   1.000
    Zr4     Zr   0.21945   0.73334   0.49800   1.000
    Zr5     Zr   0.71945   0.73334   0.49886   1.000
    Zr6     Zr   0.03119   0.26195   0.99852   1.000
    Zr7     Zr   0.53117   0.26187   0.99900   1.000
    Zr8     Zr   0.39189   0.19284   0.99856   1.000
    Zr9     Zr   0.89200   0.19293   0.99680   1.000
    Zr10    Zr   0.35839   0.80261   0.49913   1.000
    Zr11    Zr   0.85839   0.80268   0.49789   1.000
    Zr12    Zr   0.10849   0.69188   0.49717   1.000
    Zr13    Zr   0.60848   0.69186   0.49970   1.000
    Zr14    Zr   0.14196   0.30378   0.99933   1.000
    Zr15    Zr   0.64184   0.30384   0.99986   1.000
    O16     O    0.03886   0.72641   0.49758   1.000
    O17     O    0.16397   0.71261   0.49758   1.000
    O18     O    0.91381   0.78182   0.49794   1.000
    O19     O    0.78892   0.76801   0.49837   1.000
    O20     O    0.28892   0.76798   0.49856   1.000
    O21     O    0.66397   0.71260   0.49928   1.000
    O22     O    0.41383   0.78178   0.49904   1.000
    O23     O    0.53887   0.72641   0.49932   1.000
    O24     O    0.83657   0.21366   0.99762   1.000
    O25     O    0.96160   0.22744   0.99766   1.000
    O26     O    0.71149   0.26912   0.99915   1.000
    O27     O    0.33645   0.21355   0.99852   1.000
    O28     O    0.21148   0.26902   0.99891   1.000
    O29     O    0.08657   0.28287   0.99892   1.000
    O30     O    0.46153   0.22736   0.99878   1.000
    O31     O    0.58651   0.28286   0.99943   1.000
    N32     N    0.12552   0.99809   0.74828   1.000
    O33     O    0.18841   0.09580   0.85159   1.000
    O34     O    0.06243   0.90019   0.64491   1.000
    O35     O    0.08476   0.10667   0.85097   1.000
    O36     O    0.16620   0.88922   0.64572   1.000
    N37     N    0.62533   0.99570   0.24692   1.000
    O38     O    0.58460   0.10466   0.14472   1.000
    O39     O    0.56237   0.89900   0.35120   1.000
    O40     O    0.68829   0.09377   0.14383   1.000
    O41     O    0.66611   0.88793   0.35025   1.000
    N42     N    0.37500   0.49776   0.74861   1.000
    O43     O    0.31208   0.59487   0.64483   1.000
    O44     O    0.43809   0.40060   0.85233   1.000
    O45     O    0.41573   0.60577   0.64584   1.000
    O46     O    0.33434   0.38970   0.85145   1.000
    N47     N    0.87543   0.50063   0.75065   1.000
    O48     O    0.81237   0.59726   0.64686   1.000
    O49     O    0.93845   0.40212   0.85317   1.000
    O50     O    0.91610   0.60732   0.64658   1.000
    O51     O    0.83466   0.39212   0.85321   1.000
    N52     N    0.12541   0.99796   0.24807   1.000
    O53     O    0.06227   0.90003   0.35114   1.000
    O54     O    0.18836   0.09571   0.14501   1.000
    O55     O    0.16615   0.88997   0.35119   1.000
    O56     O    0.08461   0.10582   0.14507   1.000
    N57     N    0.62527   0.00059   0.74705   1.000
    O58     O    0.68828   0.09798   0.85039   1.000
    O59     O    0.56217   0.90138   0.64488   1.000
    O60     O    0.58451   0.10793   0.85062   1.000
    O61     O    0.66605   0.89142   0.64475   1.000
    N62     N    0.37536   0.49829   0.24815   1.000
    O63     O    0.43835   0.40002   0.14557   1.000
    O64     O    0.31233   0.59606   0.35101   1.000
    O65     O    0.33452   0.39000   0.14541   1.000
    O66     O    0.41608   0.60613   0.35129   1.000
    N67     N    0.87505   0.49529   0.25037   1.000
    O68     O    0.93810   0.39850   0.14652   1.000
    O69     O    0.81211   0.59359   0.35316   1.000
    O70     O    0.83440   0.38758   0.14726   1.000
    O71     O    0.91575   0.60450   0.35213   1.000
loop_
    _geom_bond_atom_site_label_1
    _geom_bond_atom_site_label_2
    _geom_bond_distance
    _geom_bond_site_symmetry_2
    _ccdc_geom_bond_type
    Zr12   O16       1.07432      .   S
    Zr3    O16       1.07432  1_655   S
    Zr12   O17       0.81648      .   S
    Zr4    O17       0.81648      .   S
    Zr11   O18       0.81629      .   S
    Zr3    O18       0.81629      .   S
    Zr11   O19       1.07346      .   S
    Zr5    O19       1.07346      .   S
    Zr4    O20       1.07322      .   S
    Zr10   O20       1.07322      .   S
    Zr5    O21       0.81657      .   S
    Zr13   O21       0.81657      .   S
    Zr2    O22       0.81626      .   S
    Zr10   O22       0.81626      .   S
    Zr2    O23       1.07419      .   S
    Zr13   O23       1.07419      .   S
    Zr9    O24       0.81581      .   S
    Zr1    O24       0.81581      .   S
    Zr9    O25       1.07396      .   S
    Zr6    O25       1.07396  1_455   S
    Zr1    O26       1.07591      .   S
    Zr15   O26       1.07591      .   S
    Zr0    O27       0.81579      .   S
    Zr8    O27       0.81579      .   S
    Zr0    O28       1.07453      .   S
    Zr14   O28       1.07453      .   S
    Zr6    O29       0.81620      .   S
    Zr14   O29       0.81620      .   S
    Zr8    O30       1.07447      .   S
    Zr7    O30       1.07447      .   S
    Zr7    O31       0.81591      .   S
    Zr15   O31       0.81591      .   S
    N32    O33       2.32452  1_565   S
    Zr0    O33       3.31768      .   S
    N32    O34       2.32782      .   S
    Zr3    O34       3.32772  1_655   S
    N32    O35       2.32212  1_565   S
    Zr6    O35       3.31386      .   S
    N32    O36       2.32324      .   S
    Zr4    O36       3.32035      .   S
    N37    O38       2.32027  1_565   S
    Zr7    O38       3.31148  1_556   S
    N37    O39       2.32750      .   S
    Zr2    O39       3.32647      .   S
    N37    O40       2.32551  1_565   S
    Zr1    O40       3.32046  1_556   S
    N37    O41       2.32210      .   S
    Zr5    O41       3.31885      .   S
    N42    O43       2.32484      .   S
    Zr4    O43       3.31714      .   S
    N42    O44       2.32552      .   S
    Zr7    O44       3.31988      .   S
    N42    O45       2.31777      .   S
    Zr2    O45       3.30576      .   S
    N42    O46       2.31896      .   S
    Zr0    O46       3.30918      .   S
    N47    O48       2.32164      .   S
    Zr5    O48       3.31191      .   S
    N47    O49       2.32306      .   S
    Zr6    O49       3.31548  1_455   S
    N47    O50       2.32007      .   S
    Zr3    O50       3.30910      .   S
    N47    O51       2.32037      .   S
    Zr1    O51       3.31140      .   S
    N52    O53       2.32501      .   S
    Zr3    O53       3.32472  1_655   S
    N52    O54       2.32242  1_565   S
    Zr0    O54       3.31451  1_556   S
    N52    O55       2.32147      .   S
    Zr4    O55       3.31779      .   S
    N52    O56       2.31925  1_565   S
    Zr6    O56       3.31042  1_556   S
    N57    O58       2.32277      .   S
    Zr1    O58       3.31509      .   S
    N57    O59       2.32560  1_545   S
    Zr2    O59       3.32508      .   S
    N57    O60       2.32044      .   S
    Zr7    O60       3.30987      .   S
    N57    O61       2.32342  1_545   S
    Zr5    O61       3.32131      .   S
    N62    O63       2.32126      .   S
    Zr7    O63       3.31214  1_556   S
    N62    O64       2.32041      .   S
    Zr4    O64       3.30993      .   S
    N62    O65       2.32039      .   S
    Zr0    O65       3.31111  1_556   S
    N62    O66       2.32039      .   S
    Zr2    O66       3.30980      .   S
    N67    O68       2.32341      .   S
    Zr6    O68       3.31631  1_456   S
    N67    O69       2.32365      .   S
    Zr5    O69       3.31516      .   S
    N67    O70       2.31853      .   S
    Zr1    O70       3.30768  1_556   S
    N67    O71       2.31769      .   S
    Zr3    O71       3.30584      .   S
