# CIF file generated by openbabel 2.4.90, see http://openbabel.sf.net
data_I
_chemical_name_common 'VESTA_phase_1'
_cell_length_a 16.072
_cell_length_b 18.863
_cell_length_c 18.379
_cell_angle_alpha 90.289
_cell_angle_beta 90.035
_cell_angle_gamma 89.883
_space_group_name_H-M_alt 'P 1'
_space_group_name_Hall 'P 1'
loop_
    _symmetry_equiv_pos_as_xyz
    x,y,z
loop_
    _atom_site_label
    _atom_site_type_symbol
    _atom_site_fract_x
    _atom_site_fract_y
    _atom_site_fract_z
    _atom_site_occupancy
    Zn0     Zn   0.47145   0.71632   0.22195   1.000
    Zn1     Zn   0.03147   0.71920   0.77817   1.000
    Zn2     Zn   0.02833   0.21898   0.72175   1.000
    Zn3     Zn   0.46847   0.21641   0.27808   1.000
    Zn4     Zn   0.97163   0.78101   0.27827   1.000
    Zn5     Zn   0.53151   0.78358   0.72193   1.000
    Zn6     Zn   0.52857   0.28363   0.77805   1.000
    Zn7     Zn   0.96853   0.28080   0.22184   1.000
    H8      H    0.83061   0.69368   0.51637   1.000
    H9      H    0.82257   0.78663   0.52302   1.000
    H10     H    0.70119   0.76754   0.61439   1.000
    H11     H    0.73179   0.67829   0.61925   1.000
    H12     H    0.74126   0.85162   0.31960   1.000
    H13     H    0.80116   0.76368   0.38674   1.000
    H14     H    0.76815   0.67504   0.38354   1.000
    H15     H    0.82342   0.60648   0.59974   1.000
    H16     H    0.27819   0.04392   0.73980   1.000
    H17     H    0.52383   0.15829   0.51182   1.000
    H18     H    0.66961   0.69583   0.48610   1.000
    H19     H    0.68114   0.78827   0.47805   1.000
    H20     H    0.90349   0.86850   0.77070   1.000
    H21     H    0.16051   0.96863   0.78394   1.000
    H22     H    0.51035   0.09523   0.63081   1.000
    H23     H    0.15952   0.46623   0.70977   1.000
    H24     H    0.27659   0.54310   0.75310   1.000
    H25     H    0.30341   0.47577   0.95260   1.000
    H26     H    0.30787   0.97246   0.54330   1.000
    H27     H    0.00000   0.46072   0.66821   1.000
    H28     H    0.67400   0.60604   0.40590   1.000
    H29     H    0.26002   0.79012   0.66790   1.000
    H30     H    0.25674   0.29232   0.83267   1.000
    H31     H    0.07545   0.56062   0.74361   1.000
    H32     H    0.76220   0.85549   0.68063   1.000
    H33     H    0.38061   0.86403   0.62617   1.000
    H34     H    0.60893   0.48738   0.41287   1.000
    H35     H    0.37678   0.36760   0.87367   1.000
    H36     H    0.51119   0.59342   0.86878   1.000
    H37     H    0.32185   0.03597   0.42509   1.000
    H38     H    0.88711   0.48696   0.59340   1.000
    H39     H    0.60059   0.86443   0.22870   1.000
    H40     H    0.31913   0.53753   0.07214   1.000
    H41     H    0.42604   0.55897   0.25696   1.000
    H42     H    0.48260   0.46042   0.33531   1.000
    H43     H    0.52627   0.65502   0.98903   1.000
    H44     H    0.66898   0.19314   0.01524   1.000
    H45     H    0.67661   0.28600   0.02298   1.000
    H46     H    0.79819   0.26568   0.11425   1.000
    H47     H    0.76750   0.17652   0.11820   1.000
    H48     H    0.75694   0.35272   0.81966   1.000
    H49     H    0.69802   0.26433   0.88640   1.000
    H50     H    0.73157   0.17579   0.88237   1.000
    H51     H    0.67551   0.10514   0.09700   1.000
    H52     H    0.22329   0.54258   0.23732   1.000
    H53     H    0.97799   0.65974   0.01139   1.000
    H54     H    0.83003   0.19562   0.98520   1.000
    H55     H    0.81798   0.28813   0.97811   1.000
    H56     H    0.59563   0.36599   0.27115   1.000
    H57     H    0.34038   0.46654   0.28204   1.000
    H58     H    0.99086   0.59554   0.12983   1.000
    H59     H    0.34016   0.96520   0.21340   1.000
    H60     H    0.22227   0.04135   0.25699   1.000
    H61     H    0.19651   0.97481   0.45480   1.000
    H62     H    0.19237   0.47150   0.04171   1.000
    H63     H    0.48471   0.95898   0.16658   1.000
    H64     H    0.82587   0.10679   0.90416   1.000
    H65     H    0.23895   0.28801   0.16782   1.000
    H66     H    0.24331   0.78963   0.33336   1.000
    H67     H    0.42525   0.05838   0.24293   1.000
    H68     H    0.73678   0.35351   0.18095   1.000
    H69     H    0.11887   0.36268   0.12559   1.000
    H70     H    0.89191   0.98826   0.91056   1.000
    H71     H    0.12266   0.86440   0.37489   1.000
    H72     H    0.98795   0.09171   0.37014   1.000
    H73     H    0.17879   0.53605   0.92385   1.000
    H74     H    0.61228   0.98567   0.09089   1.000
    H75     H    0.89744   0.36650   0.72904   1.000
    H76     H    0.18163   0.03856   0.57353   1.000
    H77     H    0.07526   0.06154   0.75642   1.000
    H78     H    0.01894   0.96222   0.83359   1.000
    H79     H    0.97365   0.15519   0.48946   1.000
    H80     H    0.33098   0.80675   0.98472   1.000
    H81     H    0.32330   0.71389   0.97703   1.000
    H82     H    0.20178   0.73418   0.88572   1.000
    H83     H    0.23242   0.82335   0.88177   1.000
    H84     H    0.24297   0.64723   0.18030   1.000
    H85     H    0.30192   0.73562   0.11352   1.000
    H86     H    0.26838   0.82417   0.11760   1.000
    H87     H    0.32442   0.89475   0.90241   1.000
    H88     H    0.77672   0.45741   0.76268   1.000
    H89     H    0.02197   0.34024   0.98862   1.000
    H90     H    0.16993   0.80434   0.01477   1.000
    H91     H    0.18193   0.71183   0.02189   1.000
    H92     H    0.40436   0.63395   0.72880   1.000
    H93     H    0.65961   0.53344   0.71797   1.000
    H94     H    0.00000   0.40444   0.87018   1.000
    H95     H    0.66013   0.03472   0.78671   1.000
    H96     H    0.77814   0.95869   0.74316   1.000
    H97     H    0.80356   0.00000   0.54530   1.000
    H98     H    0.80763   0.52851   0.95829   1.000
    H99     H    0.51527   0.04092   0.83356   1.000
    H100    H    0.17410   0.89319   0.09586   1.000
    H101    H    0.76102   0.71198   0.83219   1.000
    H102    H    0.75669   0.21033   0.66662   1.000
    H103    H    0.57473   0.94156   0.75716   1.000
    H104    H    0.26320   0.64639   0.81900   1.000
    H105    H    0.88111   0.63732   0.87442   1.000
    H106    H    0.10811   0.01175   0.08952   1.000
    H107    H    0.87743   0.13567   0.62512   1.000
    H108    H    0.00000   0.90850   0.62980   1.000
    H109    H    0.82119   0.46396   0.07610   1.000
    H110    H    0.38767   0.01420   0.90920   1.000
    H111    H    0.10248   0.63345   0.27090   1.000
    H112    H    0.81833   0.96131   0.42666   1.000
    H113    H    0.92477   0.93847   0.24368   1.000
    H114    H    0.98111   0.03780   0.16652   1.000
    H115    H    0.02665   0.84496   0.51051   1.000
    H116    H    0.16938   0.30628   0.48365   1.000
    H117    H    0.17742   0.21333   0.47699   1.000
    H118    H    0.29880   0.23242   0.38563   1.000
    H119    H    0.26822   0.32168   0.38078   1.000
    H120    H    0.25865   0.14835   0.68046   1.000
    H121    H    0.19882   0.23624   0.61327   1.000
    H122    H    0.23180   0.32488   0.61649   1.000
    H123    H    0.17659   0.39349   0.40026   1.000
    H124    H    0.72183   0.95608   0.26026   1.000
    H125    H    0.47616   0.84172   0.48821   1.000
    H126    H    0.33036   0.30414   0.51395   1.000
    H127    H    0.31885   0.21170   0.52197   1.000
    H128    H    0.09654   0.13150   0.22921   1.000
    H129    H    0.83950   0.03136   0.21610   1.000
    H130    H    0.48964   0.90480   0.36923   1.000
    H131    H    0.84047   0.53378   0.29026   1.000
    H132    H    0.72344   0.45686   0.24686   1.000
    H133    H    0.69661   0.52414   0.04700   1.000
    H134    H    0.69219   0.02751   0.45664   1.000
    H135    H    0.98444   0.53927   0.33180   1.000
    H136    H    0.32591   0.39393   0.59420   1.000
    H137    H    0.73998   0.20989   0.33210   1.000
    H138    H    0.74321   0.70764   0.16729   1.000
    H139    H    0.92455   0.43936   0.25641   1.000
    H140    H    0.23781   0.14450   0.31937   1.000
    H141    H    0.61939   0.13598   0.37385   1.000
    H142    H    0.39101   0.51258   0.58725   1.000
    H143    H    0.62321   0.63230   0.12629   1.000
    H144    H    0.48882   0.40650   0.13123   1.000
    H145    H    0.67820   0.96399   0.57493   1.000
    H146    H    0.11291   0.51302   0.40660   1.000
    H147    H    0.39931   0.13552   0.77133   1.000
    H148    H    0.68087   0.46240   0.92786   1.000
    H149    H    0.57405   0.44089   0.74297   1.000
    H150    H    0.51744   0.53948   0.66400   1.000
    H151    H    0.47373   0.34492   0.01097   1.000
    C152    C    0.61617   0.71699   0.31498   1.000
    C153    C    0.42725   0.13906   0.39003   1.000
    C154    C    0.78681   0.73723   0.52836   1.000
    C155    C    0.75422   0.73169   0.60630   1.000
    C156    C    0.88528   0.71927   0.68682   1.000
    C157    C    0.68941   0.81649   0.30804   1.000
    C158    C    0.74721   0.72928   0.39555   1.000
    C159    C    0.91648   0.64753   0.67407   1.000
    C160    C    0.13146   0.83127   0.75650   1.000
    C161    C    0.20226   0.87514   0.72791   1.000
    C162    C    0.19998   0.37500   0.76944   1.000
    C163    C    0.40583   0.53191   0.90362   1.000
    C164    C    0.42774   0.63763   0.10900   1.000
    C165    C    0.33466   0.95833   0.67962   1.000
    C166    C    0.40781   0.03099   0.59402   1.000
    C167    C    0.87982   0.59540   0.63017   1.000
    C168    C    0.27347   0.98848   0.72390   1.000
    C169    C    0.47666   0.11755   0.51907   1.000
    C170    C    0.71504   0.73769   0.47345   1.000
    C171    C    0.33183   0.45996   0.81692   1.000
    C172    C    0.58392   0.64594   0.32842   1.000
    C173    C    0.88190   0.82469   0.73749   1.000
    C174    C    0.42279   0.60063   0.03821   1.000
    C175    C    0.20801   0.94666   0.74810   1.000
    C176    C    0.46953   0.08270   0.58521   1.000
    C177    C    0.20638   0.44560   0.74684   1.000
    C178    C    0.27153   0.48830   0.77071   1.000
    C179    C    0.35186   0.51521   0.96050   1.000
    C180    C    0.35466   0.01346   0.53649   1.000
    C181    C    0.98690   0.51326   0.66753   1.000
    C182    C    0.61857   0.59467   0.37422   1.000
    C183    C    0.42284   0.10147   0.46095   1.000
    C184    C    0.26407   0.84598   0.68280   1.000
    C185    C    0.26115   0.34755   0.81613   1.000
    C186    C    0.02066   0.56795   0.70945   1.000
    C187    C    0.81351   0.81989   0.69263   1.000
    C188    C    0.33069   0.88709   0.65881   1.000
    C189    C    0.58189   0.52781   0.37770   1.000
    C190    C    0.32748   0.38948   0.83968   1.000
    C191    C    0.46959   0.58162   0.91387   1.000
    C192    C    0.36257   0.04879   0.47060   1.000
    C193    C    0.91568   0.52805   0.62701   1.000
    C194    C    0.62135   0.82115   0.26281   1.000
    C195    C    0.36076   0.54961   0.02721   1.000
    C196    C    0.47991   0.56654   0.29219   1.000
    C197    C    0.51182   0.51263   0.33583   1.000
    C198    C    0.47762   0.61567   0.98075   1.000
    C199    C    0.12917   0.33015   0.74196   1.000
    C200    C    0.88340   0.21860   0.81451   1.000
    C201    C    0.07477   0.64042   0.88950   1.000
    C202    C    0.71260   0.23654   0.02777   1.000
    C203    C    0.74513   0.23013   0.10575   1.000
    C204    C    0.61414   0.21734   0.18609   1.000
    C205    C    0.80916   0.31784   0.80798   1.000
    C206    C    0.75221   0.22993   0.89494   1.000
    C207    C    0.58313   0.14570   0.17294   1.000
    C208    C    0.36815   0.32863   0.25613   1.000
    C209    C    0.29764   0.37294   0.22705   1.000
    C210    C    0.29985   0.87316   0.27148   1.000
    C211    C    0.09354   0.03039   0.40550   1.000
    C212    C    0.07271   0.13917   0.61027   1.000
    C213    C    0.16570   0.45704   0.17809   1.000
    C214    C    0.09293   0.53067   0.09266   1.000
    C215    C    0.61950   0.09386   0.12837   1.000
    C216    C    0.22740   0.48696   0.22195   1.000
    C217    C    0.02481   0.61846   0.01834   1.000
    C218    C    0.78437   0.23758   0.97295   1.000
    C219    C    0.16722   0.95740   0.31947   1.000
    C220    C    0.91620   0.14755   0.82761   1.000
    C221    C    0.61731   0.32238   0.23757   1.000
    C222    C    0.07753   0.10126   0.53908   1.000
    C223    C    0.29255   0.44471   0.24658   1.000
    C224    C    0.03162   0.58300   0.08419   1.000
    C225    C    0.29321   0.94409   0.24994   1.000
    C226    C    0.22762   0.98640   0.27398   1.000
    C227    C    0.14812   0.01455   0.46244   1.000
    C228    C    0.14590   0.51300   0.03505   1.000
    C229    C    0.51317   0.00000   0.16592   1.000
    C230    C    0.88162   0.09583   0.87274   1.000
    C231    C    0.07854   0.60231   0.96021   1.000
    C232    C    0.23543   0.34402   0.18225   1.000
    C233    C    0.23869   0.84509   0.31756   1.000
    C234    C    0.47964   0.06592   0.20844   1.000
    C235    C    0.68565   0.31783   0.19268   1.000
    C236    C    0.16906   0.38557   0.15796   1.000
    C237    C    0.91883   0.02904   0.87590   1.000
    C238    C    0.17202   0.88669   0.34141   1.000
    C239    C    0.02990   0.08051   0.41523   1.000
    C240    C    0.13824   0.54889   0.96947   1.000
    C241    C    0.58388   0.02654   0.12490   1.000
    C242    C    0.87720   0.32299   0.76289   1.000
    C243    C    0.13969   0.05005   0.52856   1.000
    C244    C    0.02108   0.06872   0.79137   1.000
    C245    C    0.98931   0.01438   0.83436   1.000
    C246    C    0.02233   0.11561   0.48158   1.000
    C247    C    0.37090   0.82872   0.24330   1.000
    C248    C    0.11656   0.78138   0.18550   1.000
    C249    C    0.92518   0.35957   0.11051   1.000
    C250    C    0.28734   0.76336   0.97221   1.000
    C251    C    0.25482   0.76975   0.89423   1.000
    C252    C    0.38581   0.78257   0.81300   1.000
    C253    C    0.19076   0.68212   0.19199   1.000
    C254    C    0.24773   0.77003   0.10505   1.000
    C255    C    0.41682   0.85421   0.82707   1.000
    C256    C    0.63183   0.67135   0.74388   1.000
    C257    C    0.70234   0.62705   0.77296   1.000
    C258    C    0.70027   0.12679   0.72856   1.000
    C259    C    0.90671   0.96967   0.59452   1.000
    C260    C    0.92734   0.86083   0.38979   1.000
    C261    C    0.83429   0.54296   0.82192   1.000
    C262    C    0.90706   0.46933   0.90734   1.000
    C263    C    0.38044   0.90604   0.87166   1.000
    C264    C    0.77260   0.51303   0.77806   1.000
    C265    C    0.97515   0.38152   0.98167   1.000
    C266    C    0.21557   0.76236   0.02704   1.000
    C267    C    0.83304   0.04266   0.68060   1.000
    C268    C    0.08378   0.85245   0.17243   1.000
    C269    C    0.38267   0.67755   0.76239   1.000
    C270    C    0.92258   0.89873   0.46100   1.000
    C271    C    0.70744   0.55527   0.75343   1.000
    C272    C    0.96836   0.41699   0.91582   1.000
    C273    C    0.70704   0.05588   0.75016   1.000
    C274    C    0.77269   0.01362   0.72612   1.000
    C275    C    0.85200   0.98540   0.53769   1.000
    C276    C    0.85409   0.48701   0.96495   1.000
    C277    C    0.48680   0.98841   0.83419   1.000
    C278    C    0.11836   0.90417   0.12731   1.000
    C279    C    0.92142   0.39769   0.03980   1.000
    C280    C    0.76455   0.65597   0.81776   1.000
    C281    C    0.76140   0.15489   0.68246   1.000
    C282    C    0.52033   0.93400   0.79163   1.000
    C283    C    0.31433   0.68208   0.80728   1.000
    C284    C    0.83093   0.61442   0.84205   1.000
    C285    C    0.08118   0.97097   0.12409   1.000
    C286    C    0.82812   0.11335   0.65862   1.000
    C287    C    0.97042   0.91961   0.58477   1.000
    C288    C    0.86173   0.45112   0.03053   1.000
    C289    C    0.41607   0.97334   0.87509   1.000
    C290    C    0.12273   0.67698   0.23709   1.000
    C291    C    0.86038   0.94990   0.47156   1.000
    C292    C    0.97894   0.93130   0.20872   1.000
    C293    C    0.01072   0.98563   0.16574   1.000
    C294    C    0.97793   0.88450   0.51842   1.000
    C295    C    0.62916   0.17121   0.75671   1.000
    C296    C    0.38380   0.28293   0.68506   1.000
    C297    C    0.57276   0.86093   0.61000   1.000
    C298    C    0.21318   0.26273   0.47166   1.000
    C299    C    0.24578   0.26828   0.39370   1.000
    C300    C    0.11472   0.28071   0.31319   1.000
    C301    C    0.31052   0.18346   0.69203   1.000
    C302    C    0.25276   0.27065   0.60448   1.000
    C303    C    0.08352   0.35245   0.32594   1.000
    C304    C    0.86854   0.16873   0.24351   1.000
    C305    C    0.79774   0.12486   0.27211   1.000
    C306    C    0.79998   0.62498   0.23056   1.000
    C307    C    0.59418   0.46802   0.09639   1.000
    C308    C    0.57225   0.36233   0.89010   1.000
    C309    C    0.66534   0.04168   0.32042   1.000
    C310    C    0.59221   0.96901   0.40602   1.000
    C311    C    0.12018   0.40458   0.36984   1.000
    C312    C    0.72654   0.01152   0.27614   1.000
    C313    C    0.52335   0.88245   0.48096   1.000
    C314    C    0.28495   0.26227   0.52658   1.000
    C315    C    0.66818   0.53997   0.18308   1.000
    C316    C    0.41607   0.35398   0.67160   1.000
    C317    C    0.11812   0.17530   0.26200   1.000
    C318    C    0.57722   0.39930   0.96179   1.000
    C319    C    0.79199   0.05334   0.25180   1.000
    C320    C    0.53048   0.91732   0.41483   1.000
    C321    C    0.79361   0.55439   0.25317   1.000
    C322    C    0.72848   0.51166   0.22930   1.000
    C323    C    0.64816   0.48471   0.03944   1.000
    C324    C    0.64538   0.98652   0.46354   1.000
    C325    C    0.01311   0.48673   0.33248   1.000
    C326    C    0.38139   0.40527   0.62585   1.000
    C327    C    0.57718   0.89853   0.53900   1.000
    C328    C    0.73592   0.15403   0.31721   1.000
    C329    C    0.73881   0.65240   0.18385   1.000
    C330    C    0.97934   0.43203   0.29056   1.000
    C331    C    0.18650   0.18010   0.30736   1.000
    C332    C    0.66931   0.11292   0.34122   1.000
    C333    C    0.41809   0.47213   0.62228   1.000
    C334    C    0.67251   0.61045   0.16030   1.000
    C335    C    0.53043   0.41830   0.08614   1.000
    C336    C    0.63746   0.95118   0.52942   1.000
    C337    C    0.08433   0.47193   0.37300   1.000
    C338    C    0.37858   0.17880   0.73720   1.000
    C339    C    0.63924   0.45032   0.97279   1.000
    C340    C    0.52015   0.43334   0.70777   1.000
    C341    C    0.48821   0.48727   0.66418   1.000
    C342    C    0.52238   0.38427   0.01925   1.000
    C343    C    0.87077   0.66986   0.25803   1.000
    N344    N    0.81597   0.75350   0.66090   1.000
    N345    N    0.68581   0.75089   0.34070   1.000
    N346    N    0.98727   0.63310   0.71225   1.000
    N347    N    0.51410   0.63120   0.28890   1.000
    N348    N    0.57707   0.75948   0.26724   1.000
    N349    N    0.92528   0.76231   0.73370   1.000
    N350    N    0.68335   0.25166   0.16044   1.000
    N351    N    0.81342   0.25211   0.84033   1.000
    N352    N    0.51278   0.13101   0.21146   1.000
    N353    N    0.98638   0.13332   0.78847   1.000
    N354    N    0.92213   0.26147   0.76706   1.000
    N355    N    0.57409   0.26011   0.23335   1.000
    N356    N    0.31662   0.74824   0.83954   1.000
    N357    N    0.18652   0.74786   0.15966   1.000
    N358    N    0.48718   0.86891   0.78858   1.000
    N359    N    0.01361   0.86668   0.21159   1.000
    N360    N    0.07781   0.73851   0.23293   1.000
    N361    N    0.42587   0.73983   0.76663   1.000
    N362    N    0.18403   0.24648   0.33911   1.000
    N363    N    0.31415   0.24904   0.65933   1.000
    N364    N    0.01273   0.36688   0.28777   1.000
    N365    N    0.48594   0.36869   0.71000   1.000
    N366    N    0.42289   0.24045   0.73281   1.000
    N367    N    0.07473   0.23768   0.26624   1.000
    O368    O    0.48594   0.18563   0.38131   1.000
    O369    O    0.40345   0.00001   0.66188   1.000
    O370    O    0.37469   0.12624   0.34053   1.000
    O371    O    0.07973   0.85789   0.79994   1.000
    O372    O    0.39986   0.50267   0.83468   1.000
    O373    O    0.12934   0.76573   0.73448   1.000
    O374    O    0.48606   0.68471   0.11878   1.000
    O375    O    0.37594   0.62381   0.15946   1.000
    O376    O    0.07709   0.35518   0.69800   1.000
    O377    O    0.12715   0.26537   0.76545   1.000
    O378    O    0.00000   0.68820   0.88129   1.000
    O379    O    0.09702   0.49913   0.16025   1.000
    O380    O    0.12691   0.62673   0.83999   1.000
    O381    O    0.41989   0.35504   0.29964   1.000
    O382    O    0.09846   0.99949   0.33732   1.000
    O383    O    0.36999   0.26298   0.23447   1.000
    O384    O    0.00000   0.18567   0.61898   1.000
    O385    O    0.12530   0.12657   0.65962   1.000
    O386    O    0.42320   0.85477   0.20040   1.000
    O387    O    0.37263   0.76331   0.26511   1.000
    O388    O    0.98298   0.31181   0.11873   1.000
    O389    O    0.90298   0.50087   0.83976   1.000
    O390    O    0.87302   0.37326   0.16000   1.000
    O391    O    0.58009   0.64495   0.70036   1.000
    O392    O    0.90185   0.00000   0.66273   1.000
    O393    O    0.62998   0.73700   0.76555   1.000
    O394    O    0.98650   0.81432   0.38104   1.000
    O395    O    0.87472   0.87343   0.34047   1.000
    O396    O    0.57687   0.14516   0.79962   1.000
    O397    O    0.62740   0.23661   0.73488   1.000
    O398    O    0.51406   0.81437   0.61871   1.000
    O399    O    0.59656   0.99999   0.33816   1.000
    O400    O    0.62531   0.87376   0.65950   1.000
    O401    O    0.92026   0.14211   0.20007   1.000
    O402    O    0.60016   0.49725   0.16532   1.000
    O403    O    0.87066   0.23427   0.26553   1.000
    O404    O    0.51393   0.31524   0.88121   1.000
    O405    O    0.62402   0.37616   0.84053   1.000
    O406    O    0.92291   0.64483   0.30194   1.000
    O407    O    0.87273   0.73466   0.23450   1.000
loop_
    _geom_bond_atom_site_label_1
    _geom_bond_atom_site_label_2
    _geom_bond_distance
    _geom_bond_site_symmetry_2
    _ccdc_geom_bond_type
    H151   C342      1.08933      .   S
    H53    C217      1.08962  1_655   S
    H90    C266      1.10223      .   S
    H44    C202      1.10224      .   S
    C217   C224      1.38993      .   S
    C217   C231      1.40605  1_554   S
    C342   C335      1.39011      .   S
    C342   C318      1.40627  1_554   S
    H91    C266      1.10049      .   S
    H45    C202      1.10055      .   S
    C266   C254      1.53006      .   S
    C266   C250      1.53235  1_554   S
    C195   C174      1.40093      .   S
    C195   H40       1.08837      .   S
    C195   C179      1.39177  1_554   S
    C202   C203      1.53055      .   S
    C202   C218      1.53222  1_554   S
    C288   C279      1.40091      .   S
    C288   H109      1.08752      .   S
    C288   C276      1.39066  1_554   S
    C228   H62       1.08799      .   S
    C228   C214      1.39764      .   S
    C228   C240      1.39066  1_554   S
    C174   C164      1.47543      .   S
    C174   C198      1.40622  1_554   S
    C323   H133      1.08635      .   S
    C323   C307      1.39748      .   S
    C323   C339      1.39069  1_554   S
    C279   C249      1.48948      .   S
    C279   C265      1.40608  1_554   S
    C224   C214      1.40254      .   S
    C224   H58       1.08931  1_455   S
    C335   C307      1.40240      .   S
    C335   H144      1.08932      .   S
    H106   C285      1.09055  1_545   S
    H74    C241      1.08972  1_565   S
    C214   O379      1.38153      .   S
    H100   C278      1.08535      .   S
    C307   O402      1.38252      .   S
    H51    C215      1.09116      .   S
    C254   H85       1.09658      .   S
    C254   H86       1.09780      .   S
    C254   N357      1.46872      .   S
    C203   H46       1.09653      .   S
    C203   H47       1.09778      .   S
    C203   N350      1.46861      .   S
    C164   O374      1.30432      .   S
    C164   O375      1.27487      .   S
    C249   O388      1.30198      .   S
    C249   O390      1.26274      .   S
    O388   Zn7       1.99993      .   S
    O374   Zn0       1.99865      .   S
    C285   C278      1.39497      .   S
    C285   C293      1.39377      .   S
    C241   C215      1.39503      .   S
    C241   C229      1.45521      .   S
    H69    C236      1.09057      .   S
    H143   C334      1.09051      .   S
    C278   C268      1.39979      .   S
    C215   C207      1.39968      .   S
    C236   C213      1.39700      .   S
    C236   C232      1.39676      .   S
    N357   C248      1.37281      .   S
    N357   C253      1.37939      .   S
    O379   C213      1.39826      .   S
    C334   C315      1.39757      .   S
    C334   C329      1.39598      .   S
    N350   C204      1.37295      .   S
    N350   C235      1.37947      .   S
    O402   C315      1.39695      .   S
    C293   H114      1.09219  1_465   S
    C293   C292      1.39507  1_455   S
    C229   H63       0.89983  1_545   S
    C229   C234      1.56050      .   S
    H138   C329      1.08932      .   S
    H65    C232      1.08942      .   S
    C268   C248      1.46027      .   S
    C268   N359      1.36369      .   S
    C207   C204      1.46022      .   S
    C207   N352      1.36404      .   S
    C213   C216      1.39578      .   S
    H84    C253      1.08617      .   S
    H68    C235      1.08573      .   S
    C232   C209      1.40423      .   S
    C315   C322      1.39562      .   S
    C329   C306      1.40435      .   S
    C248   N360      1.34593      .   S
    C204   N355      1.34572      .   S
    C253   C290      1.37641      .   S
    C235   C221      1.37639      .   S
    O401   C304      1.25530      .   S
    O386   C247      1.25548      .   S
    C234   N352      1.34032      .   S
    C234   H67       1.09006      .   S
    C292   N359      1.34045  1_655   S
    C292   H113      1.09010      .   S
    N352   Zn3       2.13950      .   S
    N359   Zn4       2.14341  1_455   S
    H59    C225      1.08797      .   S
    H129   C319      1.08715      .   S
    Zn7    O403      1.97577      .   S
    Zn7    N367      2.05926  1_655   S
    Zn7    N364      2.14317  1_655   S
    C216   H52       1.08704      .   S
    C216   C223      1.39149      .   S
    Zn0    O387      1.98149      .   S
    Zn0    N348      2.05785      .   S
    Zn0    N347      2.13918      .   S
    C209   C223      1.40111      .   S
    C209   C208      1.50610      .   S
    H39    C194      1.08378      .   S
    H128   C317      1.07799      .   S
    C322   H132      1.08758      .   S
    C322   C321      1.39179      .   S
    C306   C321      1.40098      .   S
    C306   C343      1.50499      .   S
    N360   C290      1.36800      .   S
    N360   Zn4       2.05890  1_455   S
    N355   C221      1.36771      .   S
    N355   Zn3       2.06186      .   S
    O383   C208      1.29909      .   S
    O383   Zn3       1.97979      .   S
    O407   C343      1.29902      .   S
    O407   Zn4       1.98369      .   S
    C290   H111      1.08284      .   S
    C221   H56       1.08300      .   S
    C247   O387      1.29938      .   S
    C247   C210      1.50578      .   S
    C304   O403      1.29928      .   S
    C304   C305      1.50496      .   S
    C223   H57       1.08767      .   S
    C225   C210      1.40111      .   S
    C225   C226      1.39176      .   S
    C319   C305      1.40128      .   S
    C319   C312      1.39155      .   S
    C321   H131      1.08797      .   S
    C208   O381      1.25549      .   S
    H139   C330      1.09004      .   S
    H41    C196      1.09002      .   S
    H60    C226      1.08729  1_545   S
    C343   O406      1.25608      .   S
    H124   C312      1.08711  1_565   S
    C317   N367      1.36839      .   S
    C317   C331      1.38184      .   S
    C194   N348      1.36773      .   S
    C194   C157      1.37645      .   S
    N367   C300      1.34571      .   S
    N348   C152      1.34587      .   S
    C210   C233      1.40416      .   S
    C305   C328      1.40392      .   S
    C226   C219      1.39588      .   S
    C312   C309      1.39552      .   S
    Zn3    O368      2.00631      .   S
    Zn4    O394      2.00194      .   S
    N364   C330      1.34083  1_455   S
    N364   C303      1.36392      .   S
    N347   C196      1.34041      .   S
    N347   C172      1.36472      .   S
    C330   C325      1.39512  1_655   S
    C196   C197      1.39499      .   S
    C331   H140      1.08565      .   S
    C331   N362      1.37933      .   S
    C157   H12       1.08602      .   S
    C157   N345      1.37929      .   S
    C300   C303      1.46005      .   S
    C300   N362      1.37264      .   S
    C152   C172      1.46028      .   S
    C152   N345      1.37275      .   S
    C328   H137      1.08938      .   S
    C328   C332      1.39628      .   S
    C233   H66       1.08936      .   S
    C233   C238      1.39633      .   S
    C219   O382      1.39779      .   S
    C219   C238      1.39728      .   S
    C309   O399      1.39759  1_545   S
    C309   C332      1.39682      .   S
    C303   C311      1.39967      .   S
    C172   C182      1.39978      .   S
    H135   C325      1.09219  1_655   S
    C325   C337      1.39375      .   S
    H42    C197      1.09196      .   S
    C197   C189      1.39297      .   S
    O382   C211      1.38157  1_565   S
    O399   C310      1.38192      .   S
    N362   C299      1.46861      .   S
    O395   C260      1.26253      .   S
    O370   C153      1.26390      .   S
    N345   C158      1.46877      .   S
    C332   H141      1.09053      .   S
    C238   H71       1.09049      .   S
    H130   C320      1.08938      .   S
    C311   C337      1.39482      .   S
    C311   H123      1.08537      .   S
    H72    C239      1.08920  1_655   S
    C337   H146      1.09056      .   S
    C182   C189      1.39502      .   S
    C182   H28       1.08516      .   S
    C189   H34       1.09158      .   S
    H119   C299      1.09774      .   S
    O394   C260      1.30183      .   S
    O368   C153      1.30079      .   S
    H14    C158      1.09777      .   S
    H118   C299      1.09658      .   S
    H13    C158      1.09667      .   S
    C260   C270      1.49009      .   S
    C153   C183      1.48877      .   S
    C299   C298      1.53006      .   S
    C158   C170      1.52989      .   S
    C211   C239      1.40240      .   S
    C211   C227      1.39811      .   S
    C310   C320      1.40247      .   S
    C310   C324      1.39770      .   S
    C320   C313      1.38974      .   S
    C239   C246      1.38994      .   S
    H37    C192      1.08837      .   S
    H112   C291      1.08839      .   S
    H61    C227      1.08774  1_565   S
    H134   C324      1.08775  1_545   S
    C183   C192      1.40097      .   S
    C183   C169      1.40644      .   S
    C270   C291      1.40101      .   S
    C270   C294      1.40639      .   S
    C227   C243      1.39110      .   S
    C324   C336      1.39113      .   S
    C192   C180      1.39123      .   S
    C291   C275      1.39127      .   S
    C298   H117      1.10058      .   S
    C298   H116      1.10223      .   S
    C298   C314      1.53233      .   S
    C170   H19       1.10053      .   S
    C170   H18       1.10228      .   S
    C170   C154      1.53228      .   S
    C313   H125      1.08939      .   S
    C313   C327      1.40539      .   S
    C246   H79       1.08952  1_455   S
    C246   C222      1.40645      .   S
    H115   C294      1.08953  1_455   S
    H17    C169      1.08940      .   S
    H126   C314      1.10225      .   S
    H8     C154      1.10223      .   S
    C294   C287      1.39001      .   S
    C169   C176      1.38983      .   S
    H127   C314      1.10054      .   S
    H9     C154      1.10058      .   S
    C314   C302      1.52993      .   S
    C154   C155      1.52968      .   S
    C243   C222      1.40106      .   S
    C243   H76       1.08855      .   S
    C336   C327      1.40080      .   S
    C336   H145      1.08840      .   S
    C180   H26       1.08755  1_545   S
    C180   C166      1.39774      .   S
    C275   H97       0.83686  1_565   S
    C275   C259      1.39750      .   S
    C327   C297      1.49006      .   S
    C222   C212      1.48984      .   S
    C287   C259      1.40232      .   S
    C287   H108      0.97769  1_655   S
    C176   C166      1.40247      .   S
    C176   H22       1.08933      .   S
    H142   C333      1.09056      .   S
    H38    C193      1.09060      .   S
    C166   O369      1.38184      .   S
    H136   C326      1.08540      .   S
    C259   O392      1.37758  1_565   S
    H15    C167      1.08540      .   S
    C302   H121      1.09666      .   S
    C302   H122      1.09776      .   S
    C302   N363      1.46866      .   S
    C155   H10       1.09662      .   S
    C155   H11       1.09784      .   S
    C155   N344      1.46884      .   S
    C297   O398      1.30081      .   S
    C297   O400      1.26379      .   S
    C212   O384      1.46805      .   S
    C212   O385      1.26253      .   S
    O398   Zn5       2.00617      .   S
    O384   Zn2       2.03910      .   S
    C333   C326      1.39511      .   S
    C333   C341      1.39387      .   S
    H107   C286      1.09047      .   S
    C326   C316      1.39976      .   S
    H33    C188      1.09056      .   S
    C193   C167      1.39484      .   S
    C193   C181      1.39369      .   S
    C167   C159      1.39962      .   S
    C286   C267      1.39728      .   S
    C286   C281      1.39633      .   S
    C188   C165      1.39681      .   S
    C188   C184      1.39626      .   S
    N363   C296      1.37288      .   S
    N363   C301      1.37938      .   S
    N344   C156      1.37264      .   S
    N344   C187      1.37933      .   S
    O369   C165      1.39763  1_545   S
    O392   C267      1.40443      .   S
    H150   C341      1.09201      .   S
    C341   C340      1.39491      .   S
    H102   C281      1.08934      .   S
    C181   H27       1.01285  1_655   S
    C181   C186      1.39506  1_655   S
    H29    C184      1.08939      .   S
    C316   C296      1.46030      .   S
    C316   N365      1.35438      .   S
    C159   C156      1.46008      .   S
    C159   N346      1.36397      .   S
    C165   C168      1.39543      .   S
    H120   C301      1.08613      .   S
    C267   C274      1.39585      .   S
    H32    C187      1.08562      .   S
    C281   C258      1.40423      .   S
    C184   C161      1.40390      .   S
    C296   N366      1.34582      .   S
    C156   N349      1.34507      .   S
    C301   C338      1.37576      .   S
    C187   C173      1.37647      .   S
    O376   C199      1.25611      .   S
    O391   C256      1.25547      .   S
    C340   N365      1.33955      .   S
    C340   H149      1.09008      .   S
    C186   N346      1.34084  1_455   S
    C186   H31       1.09009      .   S
    H23    C177      1.08787      .   S
    N365   Zn6       2.15008      .   S
    N346   Zn1       2.14328  1_655   S
    H93    C271      1.08769      .   S
    Zn2    O377      1.98255      .   S
    Zn2    N354      2.05868  1_455   S
    Zn2    N353      2.14352  1_455   S
    Zn5    O393      1.97973      .   S
    Zn5    N361      2.06217      .   S
    Zn5    N358      2.13912      .   S
    C168   H16       1.08714  1_565   S
    C168   C175      1.39080      .   S
    C274   H96       1.08730  1_545   S
    C274   C273      1.39192      .   S
    C161   C175      1.40067      .   S
    C161   C160      1.50494      .   S
    C258   C273      1.40116      .   S
    C258   C295      1.50603      .   S
    H92    C269      1.08301      .   S
    H75    C242      1.08313      .   S
    N366   C338      1.36765      .   S
    N366   Zn6       2.05838      .   S
    N349   C173      1.36797      .   S
    N349   Zn1       2.05950  1_655   S
    O373   C160      1.29926      .   S
    O373   Zn1       1.97583      .   S
    O397   C295      1.29942      .   S
    O397   Zn6       1.98185      .   S
    C338   H147      1.08379      .   S
    C173   H20       1.08243      .   S
    C199   O377      1.29846      .   S
    C199   C162      1.50498      .   S
    C256   O393      1.29907      .   S
    C256   C257      1.50611      .   S
    C177   C162      1.40103      .   S
    C177   C178      1.39176      .   S
    C175   H21       1.08862      .   S
    C273   H95       1.08795      .   S
    H24    C178      1.08790      .   S
    C271   C257      1.40110      .   S
    C271   C264      1.39151      .   S
    H77    C244      1.09013      .   S
    C160   O371      1.25533      .   S
    C295   O396      1.25542      .   S
    H103   C282      1.09002      .   S
    C269   N361      1.36771      .   S
    C269   C283      1.37640      .   S
    H88    C264      1.08709      .   S
    C242   N354      1.36797      .   S
    C242   C205      1.37634      .   S
    N361   C252      1.33512      .   S
    N354   C200      1.34605      .   S
    C162   C185      1.40435      .   S
    C178   C171      1.39567      .   S
    C257   C280      1.40422      .   S
    Zn6    O404      1.99856      .   S
    C264   C261      1.39577      .   S
    Zn1    O378      2.05019      .   S
    N353   C244      1.34044  1_655   S
    N353   C220      1.36366      .   S
    N358   C282      1.34035      .   S
    N358   C255      1.36395      .   S
    C244   C245      1.39506  1_455   S
    C282   C277      1.39490      .   S
    C283   H104      1.08573      .   S
    C283   N356      1.37947      .   S
    C205   H48       1.08617      .   S
    C205   N351      1.37942      .   S
    C252   C255      1.46295      .   S
    C252   N356      1.37875      .   S
    C200   C220      1.46026      .   S
    C200   N351      1.37278      .   S
    C185   H30       1.08931      .   S
    C185   C190      1.39599      .   S
    C171   O372      1.39696      .   S
    C171   C190      1.39760      .   S
    C280   H101      1.08943      .   S
    C280   C284      1.39676      .   S
    C261   O389      1.39825      .   S
    C261   C284      1.39698      .   S
    C255   C263      1.39973      .   S
    C220   C230      1.39979      .   S
    H99    C277      1.09201  1_545   S
    H78    C245      1.09218  1_465   S
    C277   C289      1.39368      .   S
    C245   C237      1.39286      .   S
    O372   C163      1.38268      .   S
    N356   C251      1.46868      .   S
    C190   H35       1.09050      .   S
    O389   C262      1.38138      .   S
    O380   C201      1.26283      .   S
    N351   C206      1.46878      .   S
    O405   C308      1.26288      .   S
    C284   H105      1.09056      .   S
    H36    C191      1.08933      .   S
    H94    C272      1.00813  1_455   S
    C263   C289      1.39497      .   S
    C263   H87       1.08541      .   S
    C230   C237      1.39490      .   S
    C230   H64       1.08528      .   S
    C289   H110      1.09059  1_565   S
    C237   H70       1.09149  1_545   S
    O404   C308      1.30220      .   S
    O378   C201      1.50850      .   S
    H83    C251      1.09781      .   S
    H50    C206      1.09784      .   S
    H82    C251      1.09655      .   S
    H49    C206      1.09677      .   S
    C201   C231      1.48950      .   S
    C308   C318      1.48987      .   S
    C251   C250      1.53047      .   S
    C206   C218      1.53003      .   S
    C163   C191      1.40239      .   S
    C163   C179      1.39650      .   S
    C262   C272      1.40256      .   S
    C262   C276      1.39765      .   S
    C191   C198      1.39005      .   S
    C272   C265      1.38993      .   S
    H73    C240      1.08825      .   S
    H148   C339      1.08840      .   S
    H25    C179      1.08715      .   S
    H98    C276      1.08799      .   S
    C231   C240      1.40091      .   S
    C318   C339      1.40092      .   S
    C250   H81       1.10056      .   S
    C250   H80       1.10223      .   S
    C218   H55       1.10048      .   S
    C218   H54       1.10218      .   S
    C198   H43       1.08935      .   S
    C265   H89       1.08962  1_655   S
