# CIF file generated by openbabel 2.4.90, see http://openbabel.sf.net
data_I
_chemical_name_common ''
_cell_length_a 13.968
_cell_length_b 15.512
_cell_length_c 19.523
_cell_angle_alpha 90
_cell_angle_beta 102.061
_cell_angle_gamma 90
_space_group_name_H-M_alt 'P 1'
_space_group_name_Hall 'P 1'
loop_
    _symmetry_equiv_pos_as_xyz
    x,y,z
loop_
    _atom_site_label
    _atom_site_type_symbol
    _atom_site_fract_x
    _atom_site_fract_y
    _atom_site_fract_z
    _atom_site_occupancy
    Cd0     Cd   0.99995   0.99999   0.49997   1.000
    Cd1     Cd   0.99994   0.49999   0.99998   1.000
    Cd2     Cd   0.99994   0.50000   0.49997   1.000
    Cd3     Cd   0.49995   0.99999   0.99999   1.000
    Cd4     Cd   0.49995   0.00000   0.49998   1.000
    Cd5     Cd   0.49995   0.49999   0.49998   1.000
    Cd6     Cd   0.49995   0.50001   0.99999   1.000
    Ni7     Ni   0.24957   0.25000   0.99989   1.000
    Ni8     Ni   0.24954   0.25000   0.49980   1.000
    Ni9     Ni   0.24955   0.74999   0.99987   1.000
    Ni10    Ni   0.24956   0.75000   0.49988   1.000
    Ni11    Ni   0.75027   0.24999   0.00000   1.000
    Ni12    Ni   0.75030   0.25000   0.50006   1.000
    Ni13    Ni   0.75025   0.75000   0.50005   1.000
    Cd14    Cd   0.99994   0.00000   0.99998   1.000
    C15     C    0.33051   0.33431   0.47705   1.000
    C16     C    0.33054   0.33431   0.97705   1.000
    C17     C    0.33052   0.83431   0.47700   1.000
    C18     C    0.33052   0.83430   0.97704   1.000
    C19     C    0.83104   0.33431   0.47706   1.000
    C20     C    0.83102   0.33431   0.97705   1.000
    C21     C    0.83101   0.83431   0.47706   1.000
    C22     C    0.16884   0.33431   0.02289   1.000
    C23     C    0.16881   0.33431   0.52288   1.000
    C24     C    0.16882   0.83432   0.02289   1.000
    C25     C    0.16884   0.83432   0.52289   1.000
    C26     C    0.66933   0.33432   0.02291   1.000
    C27     C    0.66936   0.33431   0.52291   1.000
    C28     C    0.66932   0.83431   0.52290   1.000
    C29     C    0.16884   0.16568   0.02289   1.000
    C30     C    0.16883   0.16568   0.52289   1.000
    C31     C    0.16881   0.66568   0.02289   1.000
    C32     C    0.16883   0.66568   0.52289   1.000
    C33     C    0.66934   0.16568   0.02292   1.000
    C34     C    0.66936   0.16568   0.52291   1.000
    C35     C    0.66932   0.66568   0.52291   1.000
    C36     C    0.33052   0.16569   0.47705   1.000
    C37     C    0.33054   0.16568   0.97704   1.000
    C38     C    0.33052   0.66568   0.47705   1.000
    C39     C    0.33052   0.66568   0.97704   1.000
    C40     C    0.83104   0.16568   0.47706   1.000
    C41     C    0.83103   0.16568   0.97700   1.000
    C42     C    0.83100   0.66568   0.47706   1.000
loop_
    _geom_bond_atom_site_label_1
    _geom_bond_atom_site_label_2
    _geom_bond_distance
    _geom_bond_site_symmetry_2
    _ccdc_geom_bond_type
    Ni11   C26       1.84404      .   S
    Ni11   C33       1.84392      .   S
    Ni11   C41       1.84286  1_554   S
    Ni11   C20       1.84248  1_554   S
    C31    Ni9       1.84285  1_554   S
    C22    Ni7       1.84266  1_554   S
    C29    Ni7       1.84267  1_554   S
    C24    Ni9       1.84293  1_554   S
    C17    Ni10      1.84393      .   S
    C36    Ni8       1.84306      .   S
    C15    Ni8       1.84303      .   S
    C38    Ni10      1.84358      .   S
    C19    Ni12      1.84278      .   S
    C21    Ni13      1.84284      .   S
    C42    Ni13      1.84281      .   S
    C40    Ni12      1.84281      .   S
    Ni8    C23       1.84324      .   S
    Ni8    C30       1.84325      .   S
    Ni10   C25       1.84269      .   S
    Ni10   C32       1.84272      .   S
    Ni13   C28       1.84339      .   S
    Ni13   C35       1.84345      .   S
    Ni12   C27       1.84351      .   S
    Ni12   C34       1.84347      .   S
    C18    Ni9       1.84359      .   S
    C39    Ni9       1.84360      .   S
    C37    Ni7       1.84385      .   S
    C16    Ni7       1.84370      .   S
