# CIF file generated by openbabel 2.4.90, see http://openbabel.sf.net
data_I
_chemical_name_common ''
_cell_length_a 13.968
_cell_length_b 15.512
_cell_length_c 19.523
_cell_angle_alpha 90
_cell_angle_beta 102.061
_cell_angle_gamma 90
_space_group_name_H-M_alt 'P 1'
_space_group_name_Hall 'P 1'
loop_
    _symmetry_equiv_pos_as_xyz
    x,y,z
loop_
    _atom_site_label
    _atom_site_type_symbol
    _atom_site_fract_x
    _atom_site_fract_y
    _atom_site_fract_z
    _atom_site_occupancy
    C0      C    0.99994   0.00000   0.99998   1.000
    C1      C    0.99995   0.99999   0.49997   1.000
    C2      C    0.99994   0.49999   0.99998   1.000
    C3      C    0.99994   0.50000   0.49997   1.000
    C4      C    0.49995   0.99999   0.99999   1.000
    C5      C    0.49995   0.00000   0.49998   1.000
    C6      C    0.49995   0.49999   0.49998   1.000
    C7      C    0.49995   0.50001   0.99999   1.000
    C8      C    0.24957   0.25000   0.99989   1.000
    C9      C    0.24954   0.25000   0.49980   1.000
    C10     C    0.24955   0.74999   0.99987   1.000
    C11     C    0.24956   0.75000   0.49988   1.000
    C12     C    0.75027   0.24999   0.00000   1.000
    C13     C    0.75030   0.25000   0.50006   1.000
    C14     C    0.75028   0.75000   0.70000   1.000
    C15     C    0.75025   0.75000   0.50005   1.000
    C16     C    0.00610   0.05285   0.13725   1.000
    C17     C    0.00610   0.05284   0.63724   1.000
    C18     C    0.00609   0.55285   0.13724   1.000
    C19     C    0.00609   0.55285   0.63724   1.000
    C20     C    0.50623   0.05285   0.13728   1.000
    C21     C    0.50623   0.05285   0.63727   1.000
    C22     C    0.50623   0.55285   0.13728   1.000
    C23     C    0.50623   0.55284   0.63727   1.000
    C24     C    0.32979   0.05660   0.09734   1.000
    C25     C    0.32979   0.05659   0.59733   1.000
    C26     C    0.32979   0.55660   0.09734   1.000
    C27     C    0.32979   0.55659   0.59734   1.000
    C28     C    0.82964   0.05659   0.09737   1.000
    C29     C    0.82965   0.05659   0.59736   1.000
    C30     C    0.82964   0.55659   0.09737   1.000
    C31     C    0.82964   0.55659   0.59736   1.000
    C32     C    0.39817   0.05699   0.22766   1.000
    C33     C    0.39817   0.05698   0.72765   1.000
    C34     C    0.39817   0.55698   0.22766   1.000
    C35     C    0.39817   0.55698   0.72765   1.000
    C36     C    0.89808   0.05698   0.22768   1.000
    C37     C    0.89808   0.05698   0.72767   1.000
    C38     C    0.89807   0.55698   0.22768   1.000
    C39     C    0.89807   0.55698   0.72767   1.000
    C40     C    0.21536   0.05671   0.18458   1.000
    C41     C    0.21536   0.05671   0.68458   1.000
    C42     C    0.21536   0.55671   0.18450   1.000
    C43     C    0.21536   0.55671   0.68458   1.000
    C44     C    0.71527   0.05671   0.18460   1.000
    C45     C    0.71527   0.05671   0.68462   1.000
    C46     C    0.71526   0.55671   0.18463   1.000
    C47     C    0.71526   0.55671   0.68462   1.000
    C48     C    0.49374   0.05285   0.36269   1.000
    C49     C    0.49374   0.05284   0.86269   1.000
    C50     C    0.49373   0.55284   0.36269   1.000
    C51     C    0.49374   0.55284   0.86268   1.000
    C52     C    0.99386   0.05285   0.36270   1.000
    C53     C    0.99387   0.05284   0.86270   1.000
    C54     C    0.99386   0.55285   0.36271   1.000
    C55     C    0.99386   0.55284   0.86271   1.000
    C56     C    0.17031   0.05659   0.40262   1.000
    C57     C    0.17032   0.05659   0.90261   1.000
    C58     C    0.17031   0.55660   0.40262   1.000
    C59     C    0.17031   0.55658   0.90261   1.000
    C60     C    0.67017   0.05659   0.40265   1.000
    C61     C    0.67018   0.05659   0.90264   1.000
    C62     C    0.67017   0.55659   0.40265   1.000
    C63     C    0.67018   0.55659   0.90264   1.000
    C64     C    0.10190   0.05698   0.27230   1.000
    C65     C    0.10190   0.05698   0.77229   1.000
    C66     C    0.10190   0.55698   0.27230   1.000
    C67     C    0.10190   0.55697   0.77230   1.000
    C68     C    0.60181   0.05698   0.27233   1.000
    C69     C    0.60181   0.05698   0.77232   1.000
    C70     C    0.60180   0.55698   0.27233   1.000
    C71     C    0.60180   0.55698   0.77232   1.000
    C72     C    0.28471   0.05672   0.31536   1.000
    C73     C    0.28471   0.05671   0.81535   1.000
    C74     C    0.28471   0.55672   0.31536   1.000
    C75     C    0.28471   0.55671   0.81536   1.000
    C76     C    0.78462   0.05671   0.31540   1.000
    C77     C    0.78462   0.05671   0.81540   1.000
    C78     C    0.78461   0.55671   0.31540   1.000
    C79     C    0.78461   0.55671   0.81540   1.000
    C80     C    0.49374   0.44714   0.36269   1.000
    C81     C    0.49374   0.44714   0.86269   1.000
    C82     C    0.49374   0.94715   0.36269   1.000
    C83     C    0.49374   0.94714   0.86268   1.000
    C84     C    0.99386   0.44715   0.36272   1.000
    C85     C    0.99386   0.44714   0.86271   1.000
    C86     C    0.99386   0.94714   0.36271   1.000
    C87     C    0.99387   0.94714   0.86271   1.000
    C88     C    0.17031   0.44341   0.40262   1.000
    C89     C    0.17031   0.44339   0.90261   1.000
    C90     C    0.17031   0.94340   0.40261   1.000
    C91     C    0.17031   0.94339   0.90261   1.000
    C92     C    0.67017   0.44340   0.40265   1.000
    C93     C    0.67018   0.44340   0.90264   1.000
    C94     C    0.67017   0.94340   0.40265   1.000
    C95     C    0.67018   0.94340   0.90264   1.000
    C96     C    0.10190   0.44301   0.27231   1.000
    C97     C    0.10190   0.44301   0.77200   1.000
    C98     C    0.10190   0.94301   0.27230   1.000
    C99     C    0.10190   0.94301   0.77229   1.000
    C100    C    0.60180   0.44301   0.27233   1.000
    C101    C    0.60180   0.44301   0.77232   1.000
    C102    C    0.60180   0.94301   0.27233   1.000
    C103    C    0.60181   0.94301   0.77232   1.000
    C104    C    0.28471   0.44328   0.31536   1.000
    C105    C    0.28471   0.44328   0.81536   1.000
    C106    C    0.28471   0.94328   0.31536   1.000
    C107    C    0.28471   0.94327   0.81535   1.000
    C108    C    0.78461   0.44328   0.31540   1.000
    C109    C    0.78462   0.44328   0.81540   1.000
    C110    C    0.78462   0.94328   0.31540   1.000
    C111    C    0.78462   0.94328   0.81540   1.000
    C112    C    0.00609   0.44714   0.13725   1.000
    C113    C    0.00609   0.44714   0.63724   1.000
    C114    C    0.00610   0.94714   0.13724   1.000
    C115    C    0.00609   0.94714   0.63724   1.000
    C116    C    0.50622   0.44715   0.13728   1.000
    C117    C    0.50623   0.44714   0.63727   1.000
    C118    C    0.50623   0.94715   0.13728   1.000
    C119    C    0.50623   0.94714   0.63727   1.000
    C120    C    0.32979   0.44341   0.09734   1.000
    C121    C    0.32979   0.44340   0.59734   1.000
    C122    C    0.32979   0.94340   0.09734   1.000
    C123    C    0.32979   0.94340   0.59733   1.000
    C124    C    0.82964   0.44340   0.09737   1.000
    C125    C    0.82964   0.44340   0.59736   1.000
    C126    C    0.82964   0.94340   0.09737   1.000
    C127    C    0.82964   0.94340   0.59736   1.000
    C128    C    0.39817   0.44302   0.22766   1.000
    C129    C    0.39817   0.44301   0.72765   1.000
    C130    C    0.39817   0.94301   0.22766   1.000
    C131    C    0.39817   0.94301   0.72765   1.000
    C132    C    0.89807   0.44301   0.22768   1.000
    C133    C    0.89808   0.44301   0.72767   1.000
    C134    C    0.89808   0.94301   0.22768   1.000
    C135    C    0.89808   0.94301   0.72767   1.000
    C136    C    0.21536   0.44329   0.18450   1.000
    C137    C    0.21536   0.44328   0.68458   1.000
    C138    C    0.21536   0.94329   0.18458   1.000
    C139    C    0.21536   0.94328   0.68450   1.000
    C140    C    0.71526   0.44328   0.18463   1.000
    C141    C    0.71527   0.44327   0.68462   1.000
    C142    C    0.71527   0.94328   0.18460   1.000
    C143    C    0.71526   0.94328   0.68462   1.000
    C144    C    0.33051   0.33431   0.47705   1.000
    C145    C    0.33054   0.33431   0.97705   1.000
    C146    C    0.33052   0.83431   0.47700   1.000
    C147    C    0.33052   0.83430   0.97704   1.000
    C148    C    0.83104   0.33431   0.47706   1.000
    C149    C    0.83102   0.33431   0.97705   1.000
    C150    C    0.83101   0.83431   0.47706   1.000
    C151    C    0.83104   0.83431   0.97705   1.000
    C152    C    0.16884   0.33431   0.02289   1.000
    C153    C    0.16881   0.33431   0.52288   1.000
    C154    C    0.16882   0.83432   0.02289   1.000
    C155    C    0.16884   0.83432   0.52289   1.000
    C156    C    0.66933   0.33432   0.02291   1.000
    C157    C    0.66936   0.33431   0.52291   1.000
    C158    C    0.66935   0.83431   0.02292   1.000
    C159    C    0.66932   0.83431   0.52290   1.000
    C160    C    0.16884   0.16568   0.02289   1.000
    C161    C    0.16883   0.16568   0.52289   1.000
    C162    C    0.16881   0.66568   0.02289   1.000
    C163    C    0.16883   0.66568   0.52289   1.000
    C164    C    0.66934   0.16568   0.02292   1.000
    C165    C    0.66936   0.16568   0.52291   1.000
    C166    C    0.66934   0.66568   0.02291   1.000
    C167    C    0.66932   0.66568   0.52291   1.000
    C168    C    0.33052   0.16569   0.47705   1.000
    C169    C    0.33054   0.16568   0.97704   1.000
    C170    C    0.33052   0.66568   0.47705   1.000
    C171    C    0.33052   0.66568   0.97704   1.000
    C172    C    0.83104   0.16568   0.47706   1.000
    C173    C    0.83103   0.16568   0.97700   1.000
    C174    C    0.83100   0.66568   0.47706   1.000
    C175    C    0.83104   0.66568   0.97700   1.000
    C176    C    0.36697   0.00000   0.12446   1.000
    C177    C    0.36697   1.00000   0.62446   1.000
    C178    C    0.36696   0.50000   0.12447   1.000
    C179    C    0.36697   0.49999   0.62446   1.000
    C180    C    0.86684   1.00000   0.12448   1.000
    C181    C    0.86684   0.99999   0.62448   1.000
    C182    C    0.86684   0.50000   0.12448   1.000
    C183    C    0.86684   0.49999   0.62448   1.000
    C184    C    0.35944   0.00000   0.20138   1.000
    C185    C    0.35945   0.99999   0.70137   1.000
    C186    C    0.35944   0.50000   0.20138   1.000
    C187    C    0.35945   0.49999   0.70137   1.000
    C188    C    0.85934   1.00000   0.20140   1.000
    C189    C    0.85934   0.99999   0.70140   1.000
    C190    C    0.85934   0.50000   0.20140   1.000
    C191    C    0.85934   0.49999   0.70140   1.000
    C192    C    0.25366   0.00000   0.21141   1.000
    C193    C    0.25367   0.99999   0.71140   1.000
    C194    C    0.25366   0.50000   0.21141   1.000
    C195    C    0.25366   0.49999   0.71141   1.000
    C196    C    0.75357   1.00000   0.21145   1.000
    C197    C    0.75357   0.99999   0.71140   1.000
    C198    C    0.75357   0.50000   0.21145   1.000
    C199    C    0.75357   0.49999   0.71145   1.000
    C200    C    0.13312   1.00000   0.37550   1.000
    C201    C    0.13312   0.99999   0.87549   1.000
    C202    C    0.13312   0.50000   0.37550   1.000
    C203    C    0.13312   0.49999   0.87549   1.000
    C204    C    0.63300   1.00000   0.37552   1.000
    C205    C    0.63300   0.99999   0.87552   1.000
    C206    C    0.63299   0.50000   0.37552   1.000
    C207    C    0.63300   0.50000   0.87552   1.000
    C208    C    0.14063   1.00000   0.29858   1.000
    C209    C    0.14063   0.99999   0.79857   1.000
    C210    C    0.14063   0.50000   0.29858   1.000
    C211    C    0.14063   0.49999   0.79857   1.000
    C212    C    0.64053   1.00000   0.29861   1.000
    C213    C    0.64053   0.99999   0.79860   1.000
    C214    C    0.64053   0.50000   0.29861   1.000
    C215    C    0.64053   0.49999   0.79860   1.000
    C216    C    0.24641   0.00000   0.28850   1.000
    C217    C    0.24641   0.99999   0.78853   1.000
    C218    C    0.24640   0.50000   0.28854   1.000
    C219    C    0.24641   0.49999   0.78853   1.000
    C220    C    0.74631   1.00000   0.28858   1.000
    C221    C    0.74631   0.99999   0.78857   1.000
    C222    C    0.74631   0.50000   0.28858   1.000
    C223    C    0.74631   0.49999   0.78857   1.000
    C224    C    0.38158   0.38905   0.46333   1.000
    C225    C    0.38160   0.38906   0.96330   1.000
    C226    C    0.38159   0.88905   0.46333   1.000
    C227    C    0.38160   0.88905   0.96333   1.000
    C228    C    0.88183   0.38912   0.46308   1.000
    C229    C    0.88183   0.38910   0.96308   1.000
    C230    C    0.88182   0.88910   0.46310   1.000
    C231    C    0.88184   0.88911   0.96308   1.000
    C232    C    0.11806   0.38912   0.03688   1.000
    C233    C    0.11806   0.38913   0.53688   1.000
    C234    C    0.11806   0.88913   0.03689   1.000
    C235    C    0.11807   0.88912   0.53688   1.000
    C236    C    0.61831   0.38907   0.03666   1.000
    C237    C    0.61832   0.38906   0.53660   1.000
    C238    C    0.61831   0.88907   0.03666   1.000
    C239    C    0.61830   0.88907   0.53660   1.000
    C240    C    0.11807   0.11087   0.03688   1.000
    C241    C    0.11806   0.11086   0.53688   1.000
    C242    C    0.11805   0.61087   0.03688   1.000
    C243    C    0.11806   0.61088   0.53688   1.000
    C244    C    0.61831   0.11092   0.03666   1.000
    C245    C    0.61832   0.11093   0.53660   1.000
    C246    C    0.61831   0.61093   0.03666   1.000
    C247    C    0.61830   0.61092   0.53665   1.000
    C248    C    0.38159   0.11094   0.46333   1.000
    C249    C    0.38161   0.11093   0.96330   1.000
    C250    C    0.38158   0.61093   0.46333   1.000
    C251    C    0.38159   0.61094   0.96333   1.000
    C252    C    0.88183   0.11088   0.46309   1.000
    C253    C    0.88183   0.11088   0.96309   1.000
    C254    C    0.88181   0.61089   0.46309   1.000
    C255    C    0.88183   0.61087   0.96308   1.000
    C256    C    0.46891   0.00000   0.11379   1.000
    C257    C    0.46891   1.00000   0.61370   1.000
    C258    C    0.46891   0.50000   0.11379   1.000
    C259    C    0.46891   0.49999   0.61379   1.000
    C260    C    0.96876   0.00000   0.11378   1.000
    C261    C    0.96876   0.99999   0.61370   1.000
    C262    C    0.96875   0.49999   0.11378   1.000
    C263    C    0.96875   0.50000   0.61377   1.000
    C264    C    0.03119   0.99999   0.38619   1.000
    C265    C    0.03120   0.99999   0.88618   1.000
    C266    C    0.03119   0.50000   0.38619   1.000
    C267    C    0.03119   0.49999   0.88618   1.000
    C268    C    0.53104   1.00000   0.38618   1.000
    C269    C    0.53105   0.99999   0.88618   1.000
    C270    C    0.53104   0.49999   0.38618   1.000
    C271    C    0.53105   0.50000   0.88618   1.000
    O272    O    0.70980   0.29215   0.01145   1.000
    O273    O    0.70981   0.20784   0.01146   1.000
    O274    O    0.79065   0.20784   0.98850   1.000
    O275    O    0.79065   0.29215   0.98852   1.000
    O276    O    0.14343   0.63828   0.02988   1.000
    O277    O    0.20918   0.70784   0.01138   1.000
    O278    O    0.14345   0.36172   0.02988   1.000
    O279    O    0.20921   0.29216   0.01139   1.000
    O280    O    0.14345   0.13828   0.02988   1.000
    O281    O    0.20921   0.20784   0.01139   1.000
    O282    O    0.14344   0.86172   0.02989   1.000
    O283    O    0.20919   0.79216   0.01138   1.000
    O284    O    0.64382   0.63831   0.02978   1.000
    O285    O    0.64382   0.36169   0.02978   1.000
    O286    O    0.64382   0.13830   0.02979   1.000
    O287    O    0.64383   0.86169   0.02979   1.000
    O288    O    0.55913   0.05546   0.01832   1.000
    O289    O    0.55913   0.44454   0.01832   1.000
    O290    O    0.55913   0.94453   0.01832   1.000
    O291    O    0.55913   0.55547   0.01832   1.000
    O292    O    0.05900   0.44456   0.01843   1.000
    O293    O    0.05900   0.55543   0.01843   1.000
    O294    O    0.05901   0.05544   0.01843   1.000
    O295    O    0.05900   0.94457   0.01843   1.000
    O296    O    0.34838   0.97170   0.11090   1.000
    O297    O    0.34838   0.02830   0.11090   1.000
    O298    O    0.34838   0.52830   0.11090   1.000
    O299    O    0.34838   0.47171   0.11090   1.000
    O300    O    0.84824   0.02830   0.11092   1.000
    O301    O    0.84824   0.52829   0.11092   1.000
    O302    O    0.84824   0.47170   0.11092   1.000
    O303    O    0.84824   0.97170   0.11092   1.000
    O304    O    0.91780   0.00000   0.11913   1.000
    O305    O    0.98743   0.97357   0.12551   1.000
    O306    O    0.98743   0.02643   0.12551   1.000
    O307    O    0.98435   0.00000   0.05688   1.000
    O308    O    0.91779   0.50000   0.11913   1.000
    O309    O    0.98742   0.52642   0.12551   1.000
    O310    O    0.98742   0.47357   0.12551   1.000
    O311    O    0.98435   0.49999   0.05688   1.000
    O312    O    0.41794   0.00000   0.11912   1.000
    O313    O    0.48757   0.02643   0.12553   1.000
    O314    O    0.48757   0.97357   0.12553   1.000
    O315    O    0.48443   1.00000   0.05689   1.000
    O316    O    0.41794   0.50000   0.11913   1.000
    O317    O    0.48757   0.52643   0.12553   1.000
    O318    O    0.48757   0.47358   0.12553   1.000
    O319    O    0.48443   0.50000   0.05689   1.000
    O320    O    0.36320   0.00000   0.16292   1.000
    O321    O    0.36320   0.50000   0.16292   1.000
    O322    O    0.86309   1.00000   0.16294   1.000
    O323    O    0.86309   0.50000   0.16294   1.000
    O324    O    0.23451   0.52836   0.19795   1.000
    O325    O    0.23451   0.47164   0.19795   1.000
    O326    O    0.23451   0.02836   0.19799   1.000
    O327    O    0.23451   0.97164   0.19799   1.000
    O328    O    0.73442   0.02836   0.19802   1.000
    O329    O    0.73442   0.97164   0.19802   1.000
    O330    O    0.73441   0.52836   0.19804   1.000
    O331    O    0.73441   0.47164   0.19804   1.000
    O332    O    0.30655   0.50000   0.20639   1.000
    O333    O    0.37881   0.52849   0.21452   1.000
    O334    O    0.37881   0.47151   0.21452   1.000
    O335    O    0.30655   0.00000   0.20639   1.000
    O336    O    0.37881   0.02849   0.21452   1.000
    O337    O    0.37881   0.97151   0.21452   1.000
    O338    O    0.80646   1.00000   0.20642   1.000
    O339    O    0.87871   0.02849   0.21454   1.000
    O340    O    0.87871   0.97151   0.21454   1.000
    O341    O    0.80645   0.50000   0.20642   1.000
    O342    O    0.87871   0.52849   0.21454   1.000
    O343    O    0.87871   0.47151   0.21454   1.000
    O344    O    0.25003   0.00000   0.24995   1.000
    O345    O    0.25003   0.50000   0.24997   1.000
    O346    O    0.74994   0.50000   0.25001   1.000
    O347    O    0.74994   1.00000   0.25001   1.000
    O348    O    0.12126   0.97151   0.28544   1.000
    O349    O    0.12126   0.52849   0.28544   1.000
    O350    O    0.12126   0.02849   0.28544   1.000
    O351    O    0.12126   0.47151   0.28544   1.000
    O352    O    0.62117   0.02849   0.28547   1.000
    O353    O    0.62117   0.47151   0.28547   1.000
    O354    O    0.62117   0.97150   0.28547   1.000
    O355    O    0.62117   0.52849   0.28547   1.000
    O356    O    0.19352   0.00000   0.29354   1.000
    O357    O    0.26556   0.02836   0.30193   1.000
    O358    O    0.26556   0.97164   0.30193   1.000
    O359    O    0.19352   0.50000   0.29356   1.000
    O360    O    0.26556   0.52836   0.30195   1.000
    O361    O    0.26556   0.47164   0.30195   1.000
    O362    O    0.69342   1.00000   0.29359   1.000
    O363    O    0.76546   0.97164   0.30199   1.000
    O364    O    0.76546   0.02835   0.30199   1.000
    O365    O    0.69342   0.50000   0.29359   1.000
    O366    O    0.76546   0.52836   0.30199   1.000
    O367    O    0.76546   0.47164   0.30199   1.000
    O368    O    0.13687   0.50000   0.33704   1.000
    O369    O    0.13688   1.00000   0.33704   1.000
    O370    O    0.63676   0.50000   0.33706   1.000
    O371    O    0.63676   1.00000   0.33706   1.000
    O372    O    0.51239   0.02642   0.37443   1.000
    O373    O    0.51239   0.52642   0.37443   1.000
    O374    O    0.51239   0.97357   0.37443   1.000
    O375    O    0.51239   0.47357   0.37443   1.000
    O376    O    0.01253   0.02642   0.37444   1.000
    O377    O    0.01253   0.52643   0.37445   1.000
    O378    O    0.01253   0.97357   0.37445   1.000
    O379    O    0.01253   0.47358   0.37445   1.000
    O380    O    0.08216   0.99999   0.38084   1.000
    O381    O    0.15172   0.97170   0.38905   1.000
    O382    O    0.15172   0.02829   0.38906   1.000
    O383    O    0.08216   0.50000   0.38084   1.000
    O384    O    0.15171   0.47171   0.38906   1.000
    O385    O    0.15171   0.52830   0.38906   1.000
    O386    O    0.58202   0.50000   0.38085   1.000
    O387    O    0.65158   0.52829   0.38908   1.000
    O388    O    0.65158   0.47170   0.38908   1.000
    O389    O    0.58202   1.00000   0.38085   1.000
    O390    O    0.65158   0.97170   0.38908   1.000
    O391    O    0.65159   0.02829   0.38908   1.000
    O392    O    0.51550   0.00000   0.44308   1.000
    O393    O    0.51549   0.49999   0.44308   1.000
    O394    O    0.01557   0.50000   0.44308   1.000
    O395    O    0.01557   0.99999   0.44308   1.000
    O396    O    0.85643   0.36171   0.47007   1.000
    O397    O    0.94089   0.44456   0.48152   1.000
    O398    O    0.85641   0.63828   0.47007   1.000
    O399    O    0.94088   0.55544   0.48153   1.000
    O400    O    0.85644   0.13828   0.47007   1.000
    O401    O    0.94089   0.05543   0.48153   1.000
    O402    O    0.85641   0.86170   0.47008   1.000
    O403    O    0.94088   0.94455   0.48153   1.000
    O404    O    0.35604   0.36168   0.47019   1.000
    O405    O    0.44076   0.44452   0.48165   1.000
    O406    O    0.35606   0.86168   0.47016   1.000
    O407    O    0.44077   0.94453   0.48165   1.000
    O408    O    0.35605   0.63830   0.47019   1.000
    O409    O    0.44076   0.55546   0.48165   1.000
    O410    O    0.35605   0.13832   0.47019   1.000
    O411    O    0.44077   0.05547   0.48165   1.000
    O412    O    0.29004   0.79215   0.48844   1.000
    O413    O    0.29003   0.20784   0.48842   1.000
    O414    O    0.29003   0.29216   0.48842   1.000
    O415    O    0.29004   0.70784   0.48846   1.000
    O416    O    0.79067   0.29215   0.48856   1.000
    O417    O    0.79063   0.79215   0.48855   1.000
    O418    O    0.79063   0.70784   0.48855   1.000
    O419    O    0.79067   0.20784   0.48856   1.000
    O420    O    0.20918   0.29215   0.51134   1.000
    O421    O    0.20919   0.20784   0.51134   1.000
    O422    O    0.20920   0.79216   0.51138   1.000
    O423    O    0.20919   0.70784   0.51138   1.000
    O424    O    0.05900   0.05543   0.51842   1.000
    O425    O    0.05901   0.94456   0.51842   1.000
    O426    O    0.98435   0.99999   0.55683   1.000
    O427    O    0.05900   0.55544   0.51842   1.000
    O428    O    0.05900   0.44457   0.51842   1.000
    O429    O    0.98435   0.50000   0.55687   1.000
    O430    O    0.55913   0.44452   0.51829   1.000
    O431    O    0.55912   0.55545   0.51831   1.000
    O432    O    0.48443   0.49999   0.55688   1.000
    O433    O    0.55913   0.94454   0.51829   1.000
    O434    O    0.55914   0.05547   0.51829   1.000
    O435    O    0.48443   0.00000   0.55684   1.000
    O436    O    0.70978   0.79215   0.51147   1.000
    O437    O    0.70979   0.70784   0.51148   1.000
    O438    O    0.70983   0.29215   0.51148   1.000
    O439    O    0.70983   0.20784   0.51148   1.000
    O440    O    0.14344   0.36172   0.52988   1.000
    O441    O    0.14345   0.86172   0.52988   1.000
    O442    O    0.14344   0.13827   0.52988   1.000
    O443    O    0.14344   0.63828   0.52988   1.000
    O444    O    0.64381   0.86169   0.52975   1.000
    O445    O    0.64384   0.36169   0.52975   1.000
    O446    O    0.64381   0.63830   0.52978   1.000
    O447    O    0.64384   0.13830   0.52975   1.000
    O448    O    0.34838   0.02829   0.61089   1.000
    O449    O    0.34838   0.97170   0.61089   1.000
    O450    O    0.34838   0.52829   0.61090   1.000
    O451    O    0.34838   0.47169   0.61090   1.000
    O452    O    0.84824   0.97170   0.61092   1.000
    O453    O    0.84824   0.02829   0.61092   1.000
    O454    O    0.84824   0.52829   0.61092   1.000
    O455    O    0.84824   0.47170   0.61092   1.000
    O456    O    0.41794   1.00000   0.61908   1.000
    O457    O    0.48757   0.02642   0.62548   1.000
    O458    O    0.48757   0.97357   0.62548   1.000
    O459    O    0.91780   0.99999   0.61909   1.000
    O460    O    0.98743   0.02642   0.62547   1.000
    O461    O    0.98743   0.97356   0.62547   1.000
    O462    O    0.91780   0.49999   0.61912   1.000
    O463    O    0.98742   0.47357   0.62550   1.000
    O464    O    0.98742   0.52642   0.62550   1.000
    O465    O    0.41794   0.49999   0.61912   1.000
    O466    O    0.48757   0.52641   0.62553   1.000
    O467    O    0.48757   0.47356   0.62553   1.000
    O468    O    0.36321   0.99999   0.66291   1.000
    O469    O    0.36321   0.49999   0.66291   1.000
    O470    O    0.86309   0.99999   0.66294   1.000
    O471    O    0.86309   0.49999   0.66294   1.000
    O472    O    0.23451   0.97164   0.69795   1.000
    O473    O    0.23451   0.47164   0.69799   1.000
    O474    O    0.23451   0.02835   0.69799   1.000
    O475    O    0.23451   0.52835   0.69799   1.000
    O476    O    0.73441   0.52835   0.69803   1.000
    O477    O    0.73442   0.97164   0.69801   1.000
    O478    O    0.73442   0.02835   0.69801   1.000
    O479    O    0.73442   0.47163   0.69803   1.000
    O480    O    0.30655   0.49999   0.70639   1.000
    O481    O    0.37881   0.52849   0.71451   1.000
    O482    O    0.37881   0.47150   0.71451   1.000
    O483    O    0.30656   0.99999   0.70638   1.000
    O484    O    0.37881   0.97150   0.71451   1.000
    O485    O    0.37881   0.02849   0.71451   1.000
    O486    O    0.80645   0.99999   0.70640   1.000
    O487    O    0.87871   0.02848   0.71453   1.000
    O488    O    0.87871   0.97150   0.71453   1.000
    O489    O    0.80645   0.49999   0.70642   1.000
    O490    O    0.87871   0.52849   0.71453   1.000
    O491    O    0.87871   0.47150   0.71453   1.000
    O492    O    0.25004   0.99999   0.74996   1.000
    O493    O    0.74994   0.99999   0.74998   1.000
    O494    O    0.25004   0.49999   0.74997   1.000
    O495    O    0.74994   0.49999   0.75001   1.000
    O496    O    0.12127   0.47150   0.78528   1.000
    O497    O    0.12127   0.02848   0.78543   1.000
    O498    O    0.12127   0.97150   0.78543   1.000
    O499    O    0.12126   0.52848   0.78543   1.000
    O500    O    0.62117   0.02849   0.78546   1.000
    O501    O    0.62117   0.97150   0.78546   1.000
    O502    O    0.62117   0.52849   0.78546   1.000
    O503    O    0.62117   0.47150   0.78546   1.000
    O504    O    0.19352   0.99999   0.79355   1.000
    O505    O    0.26556   0.02835   0.80194   1.000
    O506    O    0.26556   0.97163   0.80194   1.000
    O507    O    0.19352   0.49999   0.79355   1.000
    O508    O    0.26556   0.47163   0.80194   1.000
    O509    O    0.26556   0.52835   0.80194   1.000
    O510    O    0.69342   0.99999   0.79358   1.000
    O511    O    0.76546   0.97164   0.80198   1.000
    O512    O    0.76547   0.02835   0.80198   1.000
    O513    O    0.69342   0.49999   0.79358   1.000
    O514    O    0.76546   0.52835   0.80198   1.000
    O515    O    0.76546   0.47164   0.80198   1.000
    O516    O    0.13688   0.99999   0.83703   1.000
    O517    O    0.13688   0.49999   0.83703   1.000
    O518    O    0.63677   0.99999   0.83706   1.000
    O519    O    0.63677   0.49999   0.83706   1.000
    O520    O    0.51240   0.97357   0.87443   1.000
    O521    O    0.51239   0.52642   0.87443   1.000
    O522    O    0.51240   0.47357   0.87443   1.000
    O523    O    0.51240   0.02642   0.87443   1.000
    O524    O    0.01253   0.02642   0.87444   1.000
    O525    O    0.01253   0.47356   0.87444   1.000
    O526    O    0.01253   0.97357   0.87444   1.000
    O527    O    0.01253   0.52641   0.87444   1.000
    O528    O    0.08216   0.99999   0.88083   1.000
    O529    O    0.15172   0.97169   0.88905   1.000
    O530    O    0.15172   0.02829   0.88905   1.000
    O531    O    0.08216   0.49999   0.88083   1.000
    O532    O    0.15172   0.52829   0.88905   1.000
    O533    O    0.15172   0.47169   0.88905   1.000
    O534    O    0.58202   0.50000   0.88085   1.000
    O535    O    0.65159   0.47170   0.88908   1.000
    O536    O    0.65159   0.52829   0.88908   1.000
    O537    O    0.58203   0.99999   0.88085   1.000
    O538    O    0.65159   0.97170   0.88908   1.000
    O539    O    0.65159   0.02829   0.88908   1.000
    O540    O    0.01557   1.00000   0.94308   1.000
    O541    O    0.01557   0.49999   0.94308   1.000
    O542    O    0.51550   0.99999   0.94308   1.000
    O543    O    0.51550   0.50000   0.94308   1.000
    O544    O    0.85643   0.36171   0.97006   1.000
    O545    O    0.94088   0.44455   0.98153   1.000
    O546    O    0.85643   0.63828   0.97004   1.000
    O547    O    0.94088   0.55543   0.98153   1.000
    O548    O    0.85644   0.86171   0.97006   1.000
    O549    O    0.94089   0.94456   0.98153   1.000
    O550    O    0.85643   0.13828   0.97004   1.000
    O551    O    0.94089   0.05544   0.98153   1.000
    O552    O    0.35607   0.13831   0.97017   1.000
    O553    O    0.44078   0.05546   0.98164   1.000
    O554    O    0.35607   0.36168   0.97017   1.000
    O555    O    0.44077   0.44453   0.98164   1.000
    O556    O    0.35605   0.63831   0.97018   1.000
    O557    O    0.44077   0.55547   0.98166   1.000
    O558    O    0.35606   0.86168   0.97018   1.000
    O559    O    0.44077   0.94452   0.98166   1.000
    O560    O    0.29004   0.79215   0.98845   1.000
    O561    O    0.29004   0.70784   0.98845   1.000
    O562    O    0.29006   0.20784   0.98846   1.000
    O563    O    0.29006   0.29215   0.98847   1.000
loop_
    _geom_bond_atom_site_label_1
    _geom_bond_atom_site_label_2
    _geom_bond_distance
    _geom_bond_site_symmetry_2
    _ccdc_geom_bond_type
    C12    O272      0.92202      .   S
    C156   O272      0.92202      .   S
    C12    O273      0.92196      .   S
    C164   O273      0.92196      .   S
    C12    O274      0.92143  1_554   S
    C173   O274      0.92143      .   S
    C12    O275      0.92124  1_554   S
    C149   O275      0.92124      .   S
    C162   O276      0.58763      .   S
    C242   O276      0.58763      .   S
    C162   O277      0.92142      .   S
    C10    O277      0.92142  1_556   S
    C152   O278      0.58767      .   S
    C232   O278      0.58767      .   S
    C152   O279      0.92133      .   S
    C8     O279      0.92133  1_556   S
    C160   O280      0.58767      .   S
    C240   O280      0.58767      .   S
    C160   O281      0.92134      .   S
    C8     O281      0.92134  1_556   S
    C154   O282      0.58766      .   S
    C234   O282      0.58766      .   S
    C154   O283      0.92146      .   S
    C10    O283      0.92146  1_556   S
    C166   O284      0.58769      .   S
    C246   O284      0.58769      .   S
    C156   O285      0.58768      .   S
    C236   O285      0.58768      .   S
    C164   O286      0.58768      .   S
    C244   O286      0.58768      .   S
    C158   O287      0.58769      .   S
    C238   O287      0.58769      .   S
    C244   O288      1.19498      .   S
    C4     O288      1.19498  1_566   S
    C236   O289      1.19501      .   S
    C7     O289      1.19501  1_556   S
    C238   O290      1.19497      .   S
    C4     O290      1.19497  1_556   S
    C246   O291      1.19498      .   S
    C7     O291      1.19498  1_556   S
    C232   O292      1.19399      .   S
    C2     O292      1.19399  1_656   S
    C242   O293      1.19396      .   S
    C2     O293      1.19396  1_656   S
    C240   O294      1.19397      .   S
    C0     O294      1.19397  1_656   S
    C234   O295      1.19397      .   S
    C0     O295      1.19397  1_646   S
    C122   O296      0.54906      .   S
    C176   O296      0.54906  1_545   S
    C24    O297      0.54905      .   S
    C176   O297      0.54905      .   S
    C26    O298      0.54909      .   S
    C178   O298      0.54909      .   S
    C120   O299      0.54909      .   S
    C178   O299      0.54909      .   S
    C28    O300      0.54906      .   S
    C180   O300      0.54906  1_565   S
    C30    O301      0.54905      .   S
    C182   O301      0.54905      .   S
    C124   O302      0.54906      .   S
    C182   O302      0.54906      .   S
    C126   O303      0.54906      .   S
    C180   O303      0.54906      .   S
    C260   O304      0.74070      .   S
    C180   O304      0.74070  1_565   S
    C260   O305      0.51337  1_545   S
    C114   O305      0.51337  1_455   S
    C260   O306      0.51338      .   S
    C16    O306      0.51338  1_455   S
    C260   O307      1.17583      .   S
    C0     O307      1.17583  1_556   S
    C262   O308      0.74070      .   S
    C182   O308      0.74070      .   S
    C262   O309      0.51336      .   S
    C18    O309      0.51336  1_455   S
    C262   O310      0.51337      .   S
    C112   O310      0.51337  1_455   S
    C262   O311      1.17582      .   S
    C2     O311      1.17582  1_556   S
    C256   O312      0.74078      .   S
    C176   O312      0.74078      .   S
    C256   O313      0.51338      .   S
    C20    O313      0.51338      .   S
    C256   O314      0.51337  1_545   S
    C118   O314      0.51337      .   S
    C256   O315      1.17543  1_545   S
    C4     O315      1.17543  1_556   S
    C258   O316      0.74082      .   S
    C178   O316      0.74082      .   S
    C258   O317      0.51337      .   S
    C22    O317      0.51337      .   S
    C258   O318      0.51337      .   S
    C116   O318      0.51337      .   S
    C258   O319      1.17542      .   S
    C7     O319      1.17542  1_556   S
    C176   O320      0.76357      .   S
    C184   O320      0.76357      .   S
    C178   O321      0.76347      .   S
    C186   O321      0.76347      .   S
    C180   O322      0.76351      .   S
    C188   O322      0.76351      .   S
    C182   O323      0.76351      .   S
    C190   O323      0.76351      .   S
    C42    O324      0.55198      .   S
    C194   O324      0.55198      .   S
    C136   O325      0.55198      .   S
    C194   O325      0.55198      .   S
    C40    O326      0.55169      .   S
    C192   O326      0.55169      .   S
    C138   O327      0.55170      .   S
    C192   O327      0.55170  1_545   S
    C44    O328      0.55178      .   S
    C196   O328      0.55178  1_565   S
    C142   O329      0.55179      .   S
    C196   O329      0.55179      .   S
    C46    O330      0.55166      .   S
    C198   O330      0.55166      .   S
    C140   O331      0.55167      .   S
    C198   O331      0.55167      .   S
    C186   O332      0.76524      .   S
    C194   O332      0.76524      .   S
    C186   O333      0.55255      .   S
    C34    O333      0.55255      .   S
    C186   O334      0.55255      .   S
    C128   O334      0.55255      .   S
    C184   O335      0.76525      .   S
    C192   O335      0.76525      .   S
    C184   O336      0.55255      .   S
    C32    O336      0.55255      .   S
    C184   O337      0.55256  1_545   S
    C130   O337      0.55256      .   S
    C188   O338      0.76526      .   S
    C196   O338      0.76526      .   S
    C188   O339      0.55256  1_565   S
    C36    O339      0.55256      .   S
    C188   O340      0.55258      .   S
    C134   O340      0.55258      .   S
    C190   O341      0.76526      .   S
    C198   O341      0.76526      .   S
    C190   O342      0.55257      .   S
    C38    O342      0.55257      .   S
    C190   O343      0.55257      .   S
    C132   O343      0.55257      .   S
    C192   O344      0.76471      .   S
    C216   O344      0.76471      .   S
    C194   O345      0.76510      .   S
    C218   O345      0.76510      .   S
    C198   O346      0.76510      .   S
    C222   O346      0.76510      .   S
    C196   O347      0.76510      .   S
    C220   O347      0.76510      .   S
    C98    O348      0.55257      .   S
    C208   O348      0.55257      .   S
    C66    O349      0.55255      .   S
    C210   O349      0.55255      .   S
    C64    O350      0.55256      .   S
    C208   O350      0.55256  1_565   S
    C96    O351      0.55252      .   S
    C210   O351      0.55252      .   S
    C68    O352      0.55254      .   S
    C212   O352      0.55254  1_565   S
    C100   O353      0.55254      .   S
    C214   O353      0.55254      .   S
    C102   O354      0.55255      .   S
    C212   O354      0.55255      .   S
    C70    O355      0.55255      .   S
    C214   O355      0.55255      .   S
    C216   O356      0.76537      .   S
    C208   O356      0.76537  1_565   S
    C216   O357      0.55181      .   S
    C72    O357      0.55181      .   S
    C216   O358      0.55183  1_545   S
    C106   O358      0.55183      .   S
    C218   O359      0.76524      .   S
    C210   O359      0.76524      .   S
    C218   O360      0.55167      .   S
    C74    O360      0.55167      .   S
    C218   O361      0.55167      .   S
    C104   O361      0.55167      .   S
    C220   O362      0.76525      .   S
    C212   O362      0.76525      .   S
    C220   O363      0.55167      .   S
    C110   O363      0.55167      .   S
    C220   O364      0.55165  1_565   S
    C76    O364      0.55165      .   S
    C222   O365      0.76525      .   S
    C214   O365      0.76525      .   S
    C222   O366      0.55166      .   S
    C78    O366      0.55166      .   S
    C222   O367      0.55166      .   S
    C108   O367      0.55166      .   S
    C210   O368      0.76354      .   S
    C202   O368      0.76354      .   S
    C208   O369      0.76354      .   S
    C200   O369      0.76354      .   S
    C214   O370      0.76349      .   S
    C206   O370      0.76349      .   S
    C212   O371      0.76349      .   S
    C204   O371      0.76349      .   S
    C48    O372      0.51334      .   S
    C268   O372      0.51334  1_565   S
    C50    O373      0.51334      .   S
    C270   O373      0.51334      .   S
    C82    O374      0.51336      .   S
    C268   O374      0.51336      .   S
    C80    O375      0.51334      .   S
    C270   O375      0.51334      .   S
    C52    O376      0.51343  1_655   S
    C264   O376      0.51343  1_565   S
    C54    O377      0.51338  1_655   S
    C266   O377      0.51338      .   S
    C86    O378      0.51339  1_655   S
    C264   O378      0.51339      .   S
    C84    O379      0.51336  1_655   S
    C266   O379      0.51336      .   S
    C200   O380      0.74073      .   S
    C264   O380      0.74073      .   S
    C200   O381      0.54905      .   S
    C90    O381      0.54905      .   S
    C200   O382      0.54908  1_565   S
    C56    O382      0.54908      .   S
    C202   O383      0.74073      .   S
    C266   O383      0.74073      .   S
    C202   O384      0.54907      .   S
    C88    O384      0.54907      .   S
    C202   O385      0.54909      .   S
    C58    O385      0.54909      .   S
    C206   O386      0.74080      .   S
    C270   O386      0.74080      .   S
    C206   O387      0.54908      .   S
    C62    O387      0.54908      .   S
    C206   O388      0.54908      .   S
    C92    O388      0.54908      .   S
    C204   O389      0.74080      .   S
    C268   O389      0.74080      .   S
    C204   O390      0.54909      .   S
    C94    O390      0.54909      .   S
    C204   O391      0.54908  1_565   S
    C60    O391      0.54908      .   S
    C268   O392      1.17558  1_565   S
    C5     O392      1.17558      .   S
    C270   O393      1.17558      .   S
    C6     O393      1.17558      .   S
    C266   O394      1.17580      .   S
    C3     O394      1.17580  1_655   S
    C264   O395      1.17579      .   S
    C1     O395      1.17579  1_655   S
    C228   O396      0.58767      .   S
    C148   O396      0.58767      .   S
    C228   O397      1.19402      .   S
    C3     O397      1.19402      .   S
    C254   O398      0.58767      .   S
    C174   O398      0.58767      .   S
    C254   O399      1.19405      .   S
    C3     O399      1.19405      .   S
    C252   O400      0.58763      .   S
    C172   O400      0.58763      .   S
    C252   O401      1.19402      .   S
    C1     O401      1.19402  1_565   S
    C230   O402      0.58765      .   S
    C150   O402      0.58765      .   S
    C230   O403      1.19405      .   S
    C1     O403      1.19405      .   S
    C224   O404      0.58768      .   S
    C144   O404      0.58768      .   S
    C224   O405      1.19503      .   S
    C6     O405      1.19503      .   S
    C226   O406      0.58752      .   S
    C146   O406      0.58752      .   S
    C226   O407      1.19509      .   S
    C5     O407      1.19509  1_545   S
    C250   O408      0.58768      .   S
    C170   O408      0.58768      .   S
    C250   O409      1.19508      .   S
    C6     O409      1.19508      .   S
    C248   O410      0.58768      .   S
    C168   O410      0.58768      .   S
    C248   O411      1.19505      .   S
    C5     O411      1.19505      .   S
    C146   O412      0.92197      .   S
    C11    O412      0.92197      .   S
    C168   O413      0.92153      .   S
    C9     O413      0.92153      .   S
    C144   O414      0.92151      .   S
    C9     O414      0.92151      .   S
    C170   O415      0.92179      .   S
    C11    O415      0.92179      .   S
    C148   O416      0.92139      .   S
    C13    O416      0.92139      .   S
    C150   O417      0.92142      .   S
    C15    O417      0.92142      .   S
    C174   O418      0.92141      .   S
    C15    O418      0.92141      .   S
    C172   O419      0.92141      .   S
    C13    O419      0.92141      .   S
    C9     O420      0.92162      .   S
    C153   O420      0.92162      .   S
    C9     O421      0.92163      .   S
    C161   O421      0.92163      .   S
    C11    O422      0.92135      .   S
    C155   O422      0.92135      .   S
    C11    O423      0.92136      .   S
    C163   O423      0.92136      .   S
    C1     O424      1.19396  1_665   S
    C241   O424      1.19396      .   S
    C1     O425      1.19395  1_655   S
    C235   O425      1.19395      .   S
    C1     O426      1.17517      .   S
    C261   O426      1.17517      .   S
    C3     O427      1.19395  1_655   S
    C243   O427      1.19395      .   S
    C3     O428      1.19399  1_655   S
    C233   O428      1.19399      .   S
    C3     O429      1.17583      .   S
    C263   O429      1.17583      .   S
    C6     O430      1.19495      .   S
    C237   O430      1.19495      .   S
    C6     O431      1.19497      .   S
    C247   O431      1.19497      .   S
    C6     O432      1.17551      .   S
    C259   O432      1.17551      .   S
    C5     O433      1.19490  1_545   S
    C239   O433      1.19490      .   S
    C5     O434      1.19493      .   S
    C245   O434      1.19493      .   S
    C5     O435      1.17466      .   S
    C257   O435      1.17466  1_565   S
    C15    O436      0.92169      .   S
    C159   O436      0.92169      .   S
    C15    O437      0.92173      .   S
    C167   O437      0.92173      .   S
    C13    O438      0.92175      .   S
    C157   O438      0.92175      .   S
    C13    O439      0.92174      .   S
    C165   O439      0.92174      .   S
    C153   O440      0.58765      .   S
    C233   O440      0.58765      .   S
    C155   O441      0.58764      .   S
    C235   O441      0.58764      .   S
    C161   O442      0.58765      .   S
    C241   O442      0.58765      .   S
    C163   O443      0.58763      .   S
    C243   O443      0.58763      .   S
    C159   O444      0.58750      .   S
    C239   O444      0.58750      .   S
    C157   O445      0.58750      .   S
    C237   O445      0.58750      .   S
    C167   O446      0.58766      .   S
    C247   O446      0.58766      .   S
    C165   O447      0.58752      .   S
    C245   O447      0.58752      .   S
    C25    O448      0.54909      .   S
    C177   O448      0.54909  1_565   S
    C123   O449      0.54910      .   S
    C177   O449      0.54910      .   S
    C27    O450      0.54905      .   S
    C179   O450      0.54905      .   S
    C121   O451      0.54905      .   S
    C179   O451      0.54905      .   S
    C127   O452      0.54910      .   S
    C181   O452      0.54910      .   S
    C29    O453      0.54909      .   S
    C181   O453      0.54909  1_565   S
    C31    O454      0.54908      .   S
    C183   O454      0.54908      .   S
    C125   O455      0.54909      .   S
    C183   O455      0.54909      .   S
    C257   O456      0.74108      .   S
    C177   O456      0.74108      .   S
    C257   O457      0.51362  1_565   S
    C21    O457      0.51362      .   S
    C257   O458      0.51366      .   S
    C119   O458      0.51366      .   S
    C261   O459      0.74096      .   S
    C181   O459      0.74096      .   S
    C261   O460      0.51362  1_565   S
    C17    O460      0.51362  1_455   S
    C261   O461      0.51363      .   S
    C115   O461      0.51363  1_455   S
    C263   O462      0.74073      .   S
    C183   O462      0.74073      .   S
    C263   O463      0.51339      .   S
    C113   O463      0.51339  1_455   S
    C263   O464      0.51338      .   S
    C19    O464      0.51338  1_455   S
    C259   O465      0.74078      .   S
    C179   O465      0.74078      .   S
    C259   O466      0.51334      .   S
    C23    O466      0.51334      .   S
    C259   O467      0.51333      .   S
    C117   O467      0.51333      .   S
    C177   O468      0.76347      .   S
    C185   O468      0.76347      .   S
    C179   O469      0.76347      .   S
    C187   O469      0.76347      .   S
    C181   O470      0.76351      .   S
    C189   O470      0.76351      .   S
    C183   O471      0.76351      .   S
    C191   O471      0.76351      .   S
    C139   O472      0.55195      .   S
    C193   O472      0.55195      .   S
    C137   O473      0.55169      .   S
    C195   O473      0.55169      .   S
    C41    O474      0.55165      .   S
    C193   O474      0.55165  1_565   S
    C43    O475      0.55169      .   S
    C195   O475      0.55169      .   S
    C47    O476      0.55170      .   S
    C199   O476      0.55170      .   S
    C143   O477      0.55153      .   S
    C197   O477      0.55153      .   S
    C45    O478      0.55152      .   S
    C197   O478      0.55152  1_565   S
    C141   O479      0.55171      .   S
    C199   O479      0.55171      .   S
    C187   O480      0.76528      .   S
    C195   O480      0.76528      .   S
    C187   O481      0.55255      .   S
    C35    O481      0.55255      .   S
    C187   O482      0.55255      .   S
    C129   O482      0.55255      .   S
    C185   O483      0.76524      .   S
    C193   O483      0.76524      .   S
    C185   O484      0.55256      .   S
    C131   O484      0.55256      .   S
    C185   O485      0.55254  1_565   S
    C33    O485      0.55254      .   S
    C189   O486      0.76510      .   S
    C197   O486      0.76510      .   S
    C189   O487      0.55253  1_565   S
    C37    O487      0.55253      .   S
    C189   O488      0.55254      .   S
    C135   O488      0.55254      .   S
    C191   O489      0.76526      .   S
    C199   O489      0.76526      .   S
    C191   O490      0.55253      .   S
    C39    O490      0.55253      .   S
    C191   O491      0.55253      .   S
    C133   O491      0.55253      .   S
    C193   O492      0.76510      .   S
    C217   O492      0.76510      .   S
    C197   O493      0.76549      .   S
    C221   O493      0.76549      .   S
    C195   O494      0.76500      .   S
    C219   O494      0.76500      .   S
    C199   O495      0.76500      .   S
    C223   O495      0.76500      .   S
    C97    O496      0.55359      .   S
    C211   O496      0.55359      .   S
    C65    O497      0.55256      .   S
    C209   O497      0.55256  1_565   S
    C99    O498      0.55257      .   S
    C209   O498      0.55257      .   S
    C67    O499      0.55252      .   S
    C211   O499      0.55252      .   S
    C69    O500      0.55255      .   S
    C213   O500      0.55255  1_565   S
    C103   O501      0.55256      .   S
    C213   O501      0.55256      .   S
    C71    O502      0.55254      .   S
    C215   O502      0.55254      .   S
    C101   O503      0.55255      .   S
    C215   O503      0.55255      .   S
    C217   O504      0.76524      .   S
    C209   O504      0.76524      .   S
    C217   O505      0.55166  1_565   S
    C73    O505      0.55166      .   S
    C217   O506      0.55168      .   S
    C107   O506      0.55168      .   S
    C219   O507      0.76524      .   S
    C211   O507      0.76524      .   S
    C219   O508      0.55170      .   S
    C105   O508      0.55170      .   S
    C219   O509      0.55170      .   S
    C75    O509      0.55170      .   S
    C221   O510      0.76525      .   S
    C213   O510      0.76525      .   S
    C221   O511      0.55171      .   S
    C111   O511      0.55171      .   S
    C221   O512      0.55169  1_565   S
    C77    O512      0.55169      .   S
    C223   O513      0.76525      .   S
    C215   O513      0.76525      .   S
    C223   O514      0.55169      .   S
    C79    O514      0.55169      .   S
    C223   O515      0.55169      .   S
    C109   O515      0.55169      .   S
    C209   O516      0.76354      .   S
    C201   O516      0.76354      .   S
    C211   O517      0.76354      .   S
    C203   O517      0.76354      .   S
    C213   O518      0.76358      .   S
    C205   O518      0.76358      .   S
    C215   O519      0.76358      .   S
    C207   O519      0.76358      .   S
    C83    O520      0.51338      .   S
    C269   O520      0.51338      .   S
    C51    O521      0.51337      .   S
    C271   O521      0.51337      .   S
    C81    O522      0.51335      .   S
    C271   O522      0.51335      .   S
    C49    O523      0.51336      .   S
    C269   O523      0.51336  1_565   S
    C53    O524      0.51338  1_655   S
    C265   O524      0.51338  1_565   S
    C85    O525      0.51336  1_655   S
    C267   O525      0.51336      .   S
    C87    O526      0.51338  1_655   S
    C265   O526      0.51338      .   S
    C55    O527      0.51336  1_655   S
    C267   O527      0.51336      .   S
    C201   O528      0.74073      .   S
    C265   O528      0.74073      .   S
    C201   O529      0.54909      .   S
    C91    O529      0.54909      .   S
    C201   O530      0.54908  1_565   S
    C57    O530      0.54908      .   S
    C203   O531      0.74073      .   S
    C267   O531      0.74073      .   S
    C203   O532      0.54907      .   S
    C59    O532      0.54907      .   S
    C203   O533      0.54908      .   S
    C89    O533      0.54908      .   S
    C207   O534      0.74079      .   S
    C271   O534      0.74079      .   S
    C207   O535      0.54904      .   S
    C93    O535      0.54904      .   S
    C207   O536      0.54906      .   S
    C63    O536      0.54906      .   S
    C205   O537      0.74079      .   S
    C269   O537      0.74079      .   S
    C205   O538      0.54906      .   S
    C95    O538      0.54906      .   S
    C205   O539      0.54904  1_565   S
    C61    O539      0.54904      .   S
    C265   O540      1.17600      .   S
    C0     O540      1.17600  1_645   S
    C267   O541      1.17600      .   S
    C2     O541      1.17600  1_655   S
    C269   O542      1.17569      .   S
    C4     O542      1.17569      .   S
    C271   O543      1.17569      .   S
    C7     O543      1.17569      .   S
    C229   O544      0.58766      .   S
    C149   O544      0.58766      .   S
    C229   O545      1.19403      .   S
    C2     O545      1.19403      .   S
    C255   O546      0.58747      .   S
    C175   O546      0.58747      .   S
    C255   O547      1.19399      .   S
    C2     O547      1.19399      .   S
    C231   O548      0.58766      .   S
    C151   O548      0.58766      .   S
    C231   O549      1.19407      .   S
    C0     O549      1.19407  1_545   S
    C253   O550      0.58746      .   S
    C173   O550      0.58746      .   S
    C253   O551      1.19396      .   S
    C0     O551      1.19396      .   S
    C249   O552      0.58775      .   S
    C169   O552      0.58775      .   S
    C249   O553      1.19502      .   S
    C4     O553      1.19502  1_565   S
    C225   O554      0.58777      .   S
    C145   O554      0.58777      .   S
    C225   O555      1.19507      .   S
    C7     O555      1.19507      .   S
    C251   O556      0.58766      .   S
    C171   O556      0.58766      .   S
    C251   O557      1.19499      .   S
    C7     O557      1.19499      .   S
    C227   O558      0.58767      .   S
    C147   O558      0.58767      .   S
    C227   O559      1.19506      .   S
    C4     O559      1.19506      .   S
    C147   O560      0.92180      .   S
    C10    O560      0.92180      .   S
    C171   O561      0.92180      .   S
    C10    O561      0.92180      .   S
    C169   O562      0.92192      .   S
    C8     O562      0.92192      .   S
    C145   O563      0.92185      .   S
    C8     O563      0.92185      .   S
