# CIF file generated by openbabel 2.4.90, see http://openbabel.sf.net
data_I
_chemical_name_common ''
_cell_length_a 13.968
_cell_length_b 15.512
_cell_length_c 19.523
_cell_angle_alpha 90
_cell_angle_beta 102.061
_cell_angle_gamma 90
_space_group_name_H-M_alt 'P 1'
_space_group_name_Hall 'P 1'
loop_
    _symmetry_equiv_pos_as_xyz
    x,y,z
loop_
    _atom_site_label
    _atom_site_type_symbol
    _atom_site_fract_x
    _atom_site_fract_y
    _atom_site_fract_z
    _atom_site_occupancy
    Zr0     Zr   0.99994   0.00000   0.99998   1.000
    Zr1     Zr   0.99995   0.99999   0.49997   1.000
    Zr2     Zr   0.99994   0.49999   0.99998   1.000
    Zr3     Zr   0.99994   0.50000   0.49997   1.000
    Zr4     Zr   0.49995   0.99999   0.99999   1.000
    Zr5     Zr   0.49995   0.00000   0.49998   1.000
    Zr6     Zr   0.49995   0.49999   0.49998   1.000
    Zr7     Zr   0.49995   0.50001   0.99999   1.000
    Zr8     Zr   0.24957   0.25000   0.99989   1.000
    Zr9     Zr   0.24954   0.25000   0.49980   1.000
    Zr10    Zr   0.24955   0.74999   0.99987   1.000
    Zr11    Zr   0.24956   0.75000   0.49988   1.000
    Zr12    Zr   0.75027   0.24999   0.00000   1.000
    Zr13    Zr   0.75030   0.25000   0.50006   1.000
    Zr14    Zr   0.75028   0.75000   0.70000   1.000
    Zr15    Zr   0.75025   0.75000   0.50005   1.000
    Zr16    Zr   0.33051   0.33431   0.47705   1.000
    Zr17    Zr   0.33054   0.33431   0.97705   1.000
    Zr18    Zr   0.33052   0.83431   0.47700   1.000
    Zr19    Zr   0.33052   0.83430   0.97704   1.000
    Zr20    Zr   0.83104   0.33431   0.47706   1.000
    Zr21    Zr   0.83102   0.33431   0.97705   1.000
    Zr22    Zr   0.83101   0.83431   0.47706   1.000
    Zr23    Zr   0.16884   0.33431   0.02289   1.000
    Zr24    Zr   0.16881   0.33431   0.52288   1.000
    Zr25    Zr   0.16882   0.83432   0.02289   1.000
    Zr26    Zr   0.16884   0.83432   0.52289   1.000
    Zr27    Zr   0.66933   0.33432   0.02291   1.000
    Zr28    Zr   0.66936   0.33431   0.52291   1.000
    Zr29    Zr   0.66932   0.83431   0.52290   1.000
    Zr30    Zr   0.16884   0.16568   0.02289   1.000
    Zr31    Zr   0.16883   0.16568   0.52289   1.000
    Zr32    Zr   0.16881   0.66568   0.02289   1.000
    Zr33    Zr   0.16883   0.66568   0.52289   1.000
    Zr34    Zr   0.66934   0.16568   0.02292   1.000
    Zr35    Zr   0.66936   0.16568   0.52291   1.000
    Zr36    Zr   0.66932   0.66568   0.52291   1.000
    Zr37    Zr   0.33052   0.16569   0.47705   1.000
    Zr38    Zr   0.33054   0.16568   0.97704   1.000
    Zr39    Zr   0.33052   0.66568   0.47705   1.000
    Zr40    Zr   0.33052   0.66568   0.97704   1.000
    Zr41    Zr   0.83104   0.16568   0.47706   1.000
    Zr42    Zr   0.83103   0.16568   0.97700   1.000
    Zr43    Zr   0.83100   0.66568   0.47706   1.000
    O44     O    0.70980   0.29215   0.01145   1.000
    O45     O    0.70981   0.20784   0.01146   1.000
    O46     O    0.79065   0.20784   0.98850   1.000
    O47     O    0.79065   0.29215   0.98852   1.000
    O48     O    0.20918   0.70784   0.01138   1.000
    O49     O    0.20921   0.29216   0.01139   1.000
    O50     O    0.20921   0.20784   0.01139   1.000
    O51     O    0.20919   0.79216   0.01138   1.000
    O52     O    0.29004   0.79215   0.48844   1.000
    O53     O    0.29003   0.20784   0.48842   1.000
    O54     O    0.29003   0.29216   0.48842   1.000
    O55     O    0.29004   0.70784   0.48846   1.000
    O56     O    0.79067   0.29215   0.48856   1.000
    O57     O    0.79063   0.79215   0.48855   1.000
    O58     O    0.79063   0.70784   0.48855   1.000
    O59     O    0.79067   0.20784   0.48856   1.000
    O60     O    0.20918   0.29215   0.51134   1.000
    O61     O    0.20919   0.20784   0.51134   1.000
    O62     O    0.20920   0.79216   0.51138   1.000
    O63     O    0.20919   0.70784   0.51138   1.000
    O64     O    0.70978   0.79215   0.51147   1.000
    O65     O    0.70979   0.70784   0.51148   1.000
    O66     O    0.70983   0.29215   0.51148   1.000
    O67     O    0.70983   0.20784   0.51148   1.000
    O68     O    0.29004   0.79215   0.98845   1.000
    O69     O    0.29004   0.70784   0.98845   1.000
    O70     O    0.29006   0.20784   0.98846   1.000
    O71     O    0.29006   0.29215   0.98847   1.000
    N72     N    0.74993   0.49999   0.74999   1.000
    O73     O    0.86714   0.50000   0.65343   1.000
    O74     O    0.63271   0.50000   0.84654   1.000
    N75     N    0.74993   0.99999   0.74999   1.000
    O76     O    0.86714   0.99999   0.65341   1.000
    O77     O    0.63271   0.99999   0.84654   1.000
    N78     N    0.74992   0.50000   0.25000   1.000
    O79     O    0.86714   0.50000   0.15344   1.000
    O80     O    0.63271   0.49999   0.34654   1.000
    N81     N    0.25004   0.49999   0.74996   1.000
    O82     O    0.13280   0.49999   0.84652   1.000
    O83     O    0.36724   0.49999   0.65342   1.000
    N84     N    0.25004   0.99999   0.74997   1.000
    O85     O    0.13281   1.00000   0.84652   1.000
    O86     O    0.36724   1.00000   0.65340   1.000
    N87     N    0.25004   0.50000   0.24998   1.000
    O88     O    0.36723   0.50000   0.15343   1.000
    O89     O    0.13280   0.50000   0.34653   1.000
    N90     N    0.25004   1.00000   0.24998   1.000
    O91     O    0.36724   1.00000   0.15343   1.000
    O92     O    0.13281   1.00000   0.34653   1.000
    N93     N    0.74993   1.00000   0.25000   1.000
    O94     O    0.86714   0.00000   0.15344   1.000
    O95     O    0.63271   0.00000   0.34654   1.000
    N96     N    0.38159   0.88905   0.46333   1.000
    O97     O    0.41118   0.91679   0.47249   1.000
    O98     O    0.36882   0.87537   0.46675   1.000
    N99     N    0.38160   0.38906   0.96330   1.000
    O100    O    0.36884   0.37537   0.96674   1.000
    O101    O    0.41119   0.41679   0.97247   1.000
    N102    N    0.38160   0.88905   0.96333   1.000
    O103    O    0.36883   0.87536   0.96676   1.000
    O104    O    0.41118   0.91678   0.97249   1.000
    N105    N    0.85643   0.63828   0.97004   1.000
    O106    O    0.89866   0.59685   0.97578   1.000
    N107    N    0.11807   0.11087   0.03688   1.000
    O108    O    0.13076   0.12458   0.03338   1.000
    O109    O    0.08854   0.08316   0.02765   1.000
    N110    N    0.38158   0.38905   0.46333   1.000
    O111    O    0.41117   0.41679   0.47249   1.000
    O112    O    0.36881   0.37537   0.46676   1.000
    N113    N    0.11805   0.61087   0.03688   1.000
    O114    O    0.13074   0.62457   0.03338   1.000
    O115    O    0.08852   0.58315   0.02765   1.000
    N116    N    0.85644   0.86171   0.97006   1.000
    O117    O    0.89866   0.90313   0.97580   1.000
    N118    N    0.61830   0.61092   0.53665   1.000
    O119    O    0.58871   0.58319   0.52748   1.000
    O120    O    0.63105   0.62461   0.53321   1.000
    N121    N    0.64382   0.63831   0.02978   1.000
    O122    O    0.60148   0.59689   0.02405   1.000
    N123    N    0.88183   0.38912   0.46308   1.000
    O124    O    0.86913   0.37541   0.46657   1.000
    O125    O    0.91136   0.41684   0.47230   1.000
    N126    N    0.11806   0.38912   0.03688   1.000
    O127    O    0.13076   0.37542   0.03338   1.000
    O128    O    0.08853   0.41684   0.02765   1.000
    N129    N    0.88182   0.88910   0.46310   1.000
    O130    O    0.86912   0.87540   0.46659   1.000
    O131    O    0.91135   0.91682   0.47232   1.000
    N132    N    0.11806   0.88912   0.53688   1.000
    O133    O    0.08854   0.91684   0.52765   1.000
    O134    O    0.13076   0.87542   0.53338   1.000
    N135    N    0.88183   0.38910   0.96308   1.000
    O136    O    0.86913   0.37541   0.96657   1.000
    O137    O    0.91136   0.41683   0.97230   1.000
    N138    N    0.61832   0.38906   0.53660   1.000
    O139    O    0.58872   0.41679   0.52744   1.000
    O140    O    0.63108   0.37537   0.53318   1.000
    N141    N    0.61832   0.11093   0.53660   1.000
    O142    O    0.58873   0.08320   0.52744   1.000
    O143    O    0.63108   0.12462   0.53318   1.000
    N144    N    0.38159   0.61094   0.96333   1.000
    O145    O    0.36882   0.62462   0.96676   1.000
    O146    O    0.41118   0.58320   0.97249   1.000
    N147    N    0.61830   0.88907   0.53660   1.000
    O148    O    0.58871   0.91681   0.52744   1.000
    O149    O    0.63106   0.87538   0.53317   1.000
    N150    N    0.88181   0.61089   0.46309   1.000
    O151    O    0.86911   0.62459   0.46658   1.000
    O152    O    0.91134   0.58317   0.47231   1.000
    N153    N    0.88183   0.11088   0.46309   1.000
    O154    O    0.86914   0.12458   0.46658   1.000
    O155    O    0.91136   0.08316   0.47231   1.000
    N156    N    0.64383   0.86169   0.02979   1.000
    O157    O    0.60148   0.90311   0.02406   1.000
    N158    N    0.61831   0.38907   0.03666   1.000
    O159    O    0.58872   0.41681   0.02749   1.000
    O160    O    0.63106   0.37538   0.03322   1.000
    N161    N    0.38159   0.11094   0.46333   1.000
    O162    O    0.36882   0.12463   0.46676   1.000
    O163    O    0.41118   0.08321   0.47249   1.000
    N164    N    0.88183   0.11088   0.96309   1.000
    O165    O    0.86913   0.12458   0.96657   1.000
    O166    O    0.91136   0.08316   0.97231   1.000
    N167    N    0.11806   0.61088   0.53688   1.000
    O168    O    0.08853   0.58316   0.52765   1.000
    O169    O    0.13075   0.62458   0.53338   1.000
    N170    N    0.11806   0.88913   0.03689   1.000
    O171    O    0.08853   0.91685   0.02766   1.000
    O172    O    0.13075   0.87543   0.03339   1.000
    N173    N    0.61831   0.11092   0.03666   1.000
    O174    O    0.63106   0.12461   0.03322   1.000
    O175    O    0.58872   0.08319   0.02749   1.000
    N176    N    0.38158   0.61093   0.46333   1.000
    O177    O    0.36881   0.62462   0.46676   1.000
    O178    O    0.41117   0.58320   0.47249   1.000
    N179    N    0.11806   0.38913   0.53688   1.000
    O180    O    0.08853   0.41685   0.52765   1.000
    O181    O    0.13075   0.37542   0.53338   1.000
    N182    N    0.38161   0.11093   0.96330   1.000
    O183    O    0.36884   0.12462   0.96673   1.000
    O184    O    0.41119   0.08320   0.97247   1.000
    N185    N    0.11806   0.11086   0.53688   1.000
    O186    O    0.08853   0.08315   0.52765   1.000
    O187    O    0.13075   0.12457   0.53338   1.000
loop_
    _geom_bond_atom_site_label_1
    _geom_bond_atom_site_label_2
    _geom_bond_distance
    _geom_bond_site_symmetry_2
    _ccdc_geom_bond_type
    Zr12   O44       0.92202      .   S
    Zr27   O44       0.92202      .   S
    Zr12   O45       0.92196      .   S
    Zr34   O45       0.92196      .   S
    Zr12   O46       0.92143  1_554   S
    Zr42   O46       0.92143      .   S
    Zr12   O47       0.92124  1_554   S
    Zr21   O47       0.92124      .   S
    Zr32   O48       0.92142      .   S
    Zr10   O48       0.92142  1_556   S
    Zr23   O49       0.92133      .   S
    Zr8    O49       0.92133  1_556   S
    Zr30   O50       0.92134      .   S
    Zr8    O50       0.92134  1_556   S
    Zr25   O51       0.92146      .   S
    Zr10   O51       0.92146  1_556   S
    Zr18   O52       0.92197      .   S
    Zr11   O52       0.92197      .   S
    Zr37   O53       0.92153      .   S
    Zr9    O53       0.92153      .   S
    Zr16   O54       0.92151      .   S
    Zr9    O54       0.92151      .   S
    Zr39   O55       0.92179      .   S
    Zr11   O55       0.92179      .   S
    Zr20   O56       0.92139      .   S
    Zr13   O56       0.92139      .   S
    Zr22   O57       0.92142      .   S
    Zr15   O57       0.92142      .   S
    Zr43   O58       0.92141      .   S
    Zr15   O58       0.92141      .   S
    Zr41   O59       0.92141      .   S
    Zr13   O59       0.92141      .   S
    Zr9    O60       0.92162      .   S
    Zr24   O60       0.92162      .   S
    Zr9    O61       0.92163      .   S
    Zr31   O61       0.92163      .   S
    Zr11   O62       0.92135      .   S
    Zr26   O62       0.92135      .   S
    Zr11   O63       0.92136      .   S
    Zr33   O63       0.92136      .   S
    Zr15   O64       0.92169      .   S
    Zr29   O64       0.92169      .   S
    Zr15   O65       0.92173      .   S
    Zr36   O65       0.92173      .   S
    Zr13   O66       0.92175      .   S
    Zr28   O66       0.92175      .   S
    Zr13   O67       0.92174      .   S
    Zr35   O67       0.92174      .   S
    Zr19   O68       0.92180      .   S
    Zr10   O68       0.92180      .   S
    Zr40   O69       0.92180      .   S
    Zr10   O69       0.92180      .   S
    Zr38   O70       0.92192      .   S
    Zr8    O70       0.92192      .   S
    Zr17   O71       0.92185      .   S
    Zr8    O71       0.92185      .   S
    N72    O73       2.74303      .   S
    Zr3    O73       3.83927      .   S
    N72    O74       2.74279      .   S
    Zr7    O74       3.83871      .   S
    N75    O76       2.74327      .   S
    Zr1    O76       3.83895      .   S
    N75    O77       2.74283      .   S
    Zr4    O77       3.83874      .   S
    N78    O79       2.74300      .   S
    Zr2    O79       3.83923  1_556   S
    N78    O80       2.74271      .   S
    Zr6    O80       3.83850      .   S
    N81    O82       2.74323      .   S
    Zr2    O82       3.83973  1_655   S
    N81    O83       2.74249      .   S
    Zr6    O83       3.83812      .   S
    N84    O85       2.74320      .   S
    Zr0    O85       3.83970  1_645   S
    N84    O86       2.74287      .   S
    Zr5    O86       3.83776  1_545   S
    N87    O88       2.74255      .   S
    Zr7    O88       3.83810  1_556   S
    N87    O89       2.74312      .   S
    Zr3    O89       3.83942  1_655   S
    N90    O91       2.74258      .   S
    Zr4    O91       3.83815  1_556   S
    N90    O92       2.74309      .   S
    Zr1    O92       3.83937  1_655   S
    N93    O94       2.74298  1_565   S
    Zr0    O94       3.83922  1_556   S
    N93    O95       2.74273  1_565   S
    Zr5    O95       3.83851      .   S
    N96    O97       0.59755      .   S
    Zr5    O97       1.79264  1_545   S
    N96    O98       0.29376      .   S
    Zr18   O98       0.88128      .   S
    N99    O100      0.29388      .   S
    Zr17   O100      0.88165      .   S
    N99    O101      0.59753      .   S
    Zr7    O101      1.79260      .   S
    N102   O103      0.29384      .   S
    Zr19   O103      0.88151      .   S
    N102   O104      0.59753      .   S
    Zr4    O104      1.79260      .   S
    N105   O106      0.86351      .   S
    Zr2    O106      2.05008      .   S
    N107   O108      0.29383      .   S
    Zr30   O108      0.88150      .   S
    N107   O109      0.59698      .   S
    Zr0    O109      1.79095  1_656   S
    N110   O111      0.59752      .   S
    Zr6    O111      1.79255      .   S
    N110   O112      0.29384      .   S
    Zr16   O112      0.88152      .   S
    N113   O114      0.29381      .   S
    Zr32   O114      0.88144      .   S
    N113   O115      0.59698      .   S
    Zr2    O115      1.79094  1_656   S
    N116   O117      0.86356      .   S
    Zr0    O117      2.05018  1_545   S
    N118   O119      0.59748      .   S
    Zr6    O119      1.79245      .   S
    N118   O120      0.29383      .   S
    Zr36   O120      0.88149      .   S
    N121   O122      0.86462      .   S
    Zr7    O122      2.05232  1_556   S
    N123   O124      0.29384      .   S
    Zr20   O124      0.88151      .   S
    N123   O125      0.59701      .   S
    Zr3    O125      1.79103      .   S
    N126   O127      0.29383      .   S
    Zr23   O127      0.88150      .   S
    N126   O128      0.59699      .   S
    Zr2    O128      1.79098  1_656   S
    N129   O130      0.29382      .   S
    Zr22   O130      0.88147      .   S
    N129   O131      0.59703      .   S
    Zr1    O131      1.79108      .   S
    N132   O133      0.59697      .   S
    Zr1    O133      1.79092  1_655   S
    N132   O134      0.29382      .   S
    Zr26   O134      0.88145      .   S
    N135   O136      0.29383      .   S
    Zr21   O136      0.88149      .   S
    N135   O137      0.59702      .   S
    Zr2    O137      1.79105      .   S
    N138   O139      0.59747      .   S
    Zr6    O139      1.79242      .   S
    N138   O140      0.29375      .   S
    Zr28   O140      0.88125      .   S
    N141   O142      0.59747      .   S
    Zr5    O142      1.79240      .   S
    N141   O143      0.29376      .   S
    Zr35   O143      0.88128      .   S
    N144   O145      0.29383      .   S
    Zr40   O145      0.88148      .   S
    N144   O146      0.59749      .   S
    Zr7    O146      1.79248      .   S
    N147   O148      0.59745      .   S
    Zr5    O148      1.79234  1_545   S
    N147   O149      0.29375      .   S
    Zr29   O149      0.88124      .   S
    N150   O151      0.29384      .   S
    Zr43   O151      0.88151      .   S
    N150   O152      0.59703      .   S
    Zr3    O152      1.79108      .   S
    N153   O154      0.29381      .   S
    Zr41   O154      0.88144      .   S
    N153   O155      0.59701      .   S
    Zr1    O155      1.79103  1_565   S
    N156   O157      0.86463      .   S
    Zr4    O157      2.05232  1_556   S
    N158   O159      0.59750      .   S
    Zr7    O159      1.79251  1_556   S
    N158   O160      0.29384      .   S
    Zr27   O160      0.88152      .   S
    N161   O162      0.29384      .   S
    Zr37   O162      0.88152      .   S
    N161   O163      0.59753      .   S
    Zr5    O163      1.79258      .   S
    N164   O165      0.29373      .   S
    Zr42   O165      0.88119      .   S
    N164   O166      0.59698      .   S
    Zr0    O166      1.79094      .   S
    N167   O168      0.59698      .   S
    Zr3    O168      1.79093  1_655   S
    N167   O169      0.29382      .   S
    Zr33   O169      0.88145      .   S
    N170   O171      0.59699      .   S
    Zr0    O171      1.79096  1_646   S
    N170   O172      0.29383      .   S
    Zr25   O172      0.88150      .   S
    N173   O174      0.29384      .   S
    Zr34   O174      0.88151      .   S
    N173   O175      0.59749      .   S
    Zr4    O175      1.79247  1_566   S
    N176   O177      0.29384      .   S
    Zr39   O177      0.88152      .   S
    N176   O178      0.59754      .   S
    Zr6    O178      1.79262      .   S
    N179   O180      0.59700      .   S
    Zr3    O180      1.79099  1_655   S
    N179   O181      0.29383      .   S
    Zr24   O181      0.88148      .   S
    N182   O183      0.29387      .   S
    Zr38   O183      0.88162      .   S
    N182   O184      0.59751      .   S
    Zr4    O184      1.79253  1_565   S
    N185   O186      0.59698      .   S
    Zr1    O186      1.79094  1_665   S
    N185   O187      0.29382      .   S
    Zr31   O187      0.88147      .   S
