# CIF file generated by openbabel 2.4.90, see http://openbabel.sf.net
data_I
_chemical_name_common ''
_cell_length_a 16.978
_cell_length_b 23.612
_cell_length_c 15.943
_cell_angle_alpha 95.36
_cell_angle_beta 105.337
_cell_angle_gamma 99.088
_space_group_name_H-M_alt 'P 1'
_space_group_name_Hall 'P 1'
loop_
    _symmetry_equiv_pos_as_xyz
    x,y,z
loop_
    _atom_site_label
    _atom_site_type_symbol
    _atom_site_fract_x
    _atom_site_fract_y
    _atom_site_fract_z
    _atom_site_occupancy
    Cd0     Cd   0.26016   0.77328   0.67531   1.000
    Cd1     Cd   0.75981   0.27322   0.67483   1.000
    Cd2     Cd   0.76016   0.77328   0.67530   1.000
    Cd3     Cd   0.23983   0.22674   0.32469   1.000
    Cd4     Cd   0.24018   0.72680   0.32517   1.000
    Cd5     Cd   0.73983   0.22674   0.32469   1.000
    Cd6     Cd   0.74018   0.72680   0.32510   1.000
    Cd7     Cd   0.25013   0.25006   0.00021   1.000
    Cd8     Cd   0.24986   0.74995   0.99980   1.000
    Cd9     Cd   0.75013   0.25006   0.00021   1.000
    Cd10    Cd   0.74986   0.74995   0.99979   1.000
    H11     H    0.48880   0.21601   0.57614   1.000
    H12     H    0.48931   0.71574   0.57635   1.000
    H13     H    0.98880   0.21601   0.57614   1.000
    H14     H    0.98931   0.71574   0.57635   1.000
    H15     H    0.03443   0.29055   0.58882   1.000
    H16     H    0.03455   0.79033   0.58882   1.000
    H17     H    0.53443   0.29055   0.58882   1.000
    H18     H    0.53455   0.79033   0.58882   1.000
    H19     H    0.42748   0.20259   0.80529   1.000
    H20     H    0.42734   0.70288   0.80428   1.000
    H21     H    0.92748   0.20259   0.80529   1.000
    H22     H    0.92734   0.70288   0.80428   1.000
    H23     H    0.00669   0.22138   0.90790   1.000
    H24     H    0.00610   0.72102   0.90732   1.000
    H25     H    0.50669   0.22138   0.90790   1.000
    H26     H    0.50610   0.72102   0.90732   1.000
    H27     H    0.49089   0.28388   0.74343   1.000
    H28     H    0.49179   0.78464   0.74412   1.000
    H29     H    0.99089   0.28388   0.74343   1.000
    H30     H    0.99179   0.78464   0.74412   1.000
    H31     H    0.06325   0.31310   0.84802   1.000
    Cd32    Cd   0.25981   0.27322   0.67480   1.000
    H33     H    0.06378   0.81311   0.84920   1.000
    H34     H    0.56325   0.31310   0.84802   1.000
    H35     H    0.56379   0.81311   0.84922   1.000
    H36     H    0.24322   0.17585   0.80246   1.000
    H37     H    0.24287   0.67576   0.80282   1.000
    H38     H    0.74322   0.17585   0.80240   1.000
    H39     H    0.74287   0.67576   0.80282   1.000
    H40     H    0.29005   0.16654   0.55898   1.000
    H41     H    0.28985   0.66650   0.55941   1.000
    H42     H    0.79004   0.16654   0.55898   1.000
    H43     H    0.78985   0.66650   0.55941   1.000
    H44     H    0.29437   0.06215   0.55513   1.000
    H45     H    0.29391   0.56209   0.55542   1.000
    H46     H    0.79437   0.06215   0.55513   1.000
    H47     H    0.79390   0.56209   0.55542   1.000
    H48     H    0.24859   0.07261   0.81020   1.000
    H49     H    0.24799   0.57250   0.81044   1.000
    H50     H    0.74859   0.07261   0.81021   1.000
    H51     H    0.74799   0.57250   0.81044   1.000
    H52     H    0.35562   0.48889   0.60159   1.000
    H53     H    0.35583   0.98881   0.60103   1.000
    H54     H    0.85562   0.48889   0.60159   1.000
    H55     H    0.85582   0.98881   0.60103   1.000
    H56     H    0.18825   0.48027   0.76494   1.000
    H57     H    0.18901   0.98048   0.76498   1.000
    H58     H    0.68825   0.48027   0.76494   1.000
    H59     H    0.68900   0.98047   0.76498   1.000
    H60     H    0.34776   0.38301   0.59970   1.000
    H61     H    0.34777   0.88292   0.59914   1.000
    H62     H    0.84775   0.38301   0.59970   1.000
    H63     H    0.84776   0.88292   0.59914   1.000
    H64     H    0.11893   0.02705   0.99123   1.000
    H65     H    0.11911   0.52717   0.99183   1.000
    H66     H    0.61892   0.02705   0.99123   1.000
    H67     H    0.61910   0.52716   0.99181   1.000
    H68     H    0.38186   0.05804   0.00768   1.000
    H69     H    0.38191   0.55797   0.00762   1.000
    H70     H    0.88186   0.05804   0.00768   1.000
    H71     H    0.88191   0.55797   0.00763   1.000
    H72     H    0.12452   0.13164   0.99255   1.000
    H73     H    0.12481   0.63174   0.99315   1.000
    H74     H    0.62452   0.13164   0.99254   1.000
    H75     H    0.62480   0.63174   0.99314   1.000
    H76     H    0.37590   0.16065   0.00507   1.000
    H77     H    0.37612   0.66062   0.00530   1.000
    H78     H    0.87590   0.16065   0.00507   1.000
    H79     H    0.87612   0.66062   0.00531   1.000
    H80     H    0.19114   0.37484   0.76028   1.000
    H81     H    0.19174   0.87504   0.76036   1.000
    H82     H    0.69114   0.37484   0.76028   1.000
    H83     H    0.69173   0.87504   0.76036   1.000
    H84     H    0.01069   0.28428   0.42365   1.000
    H85     H    0.01119   0.78401   0.42386   1.000
    H86     H    0.51068   0.28428   0.42365   1.000
    H87     H    0.51119   0.78401   0.42386   1.000
    H88     H    0.46544   0.20969   0.41118   1.000
    H89     H    0.46556   0.70946   0.41118   1.000
    H90     H    0.96544   0.20969   0.41118   1.000
    H91     H    0.96556   0.70946   0.41118   1.000
    H92     H    0.07264   0.29714   0.19572   1.000
    H93     H    0.07251   0.79743   0.19471   1.000
    H94     H    0.57264   0.29714   0.19572   1.000
    H95     H    0.57251   0.79743   0.19470   1.000
    H96     H    0.49388   0.27899   0.09268   1.000
    H97     H    0.49329   0.77863   0.09210   1.000
    H98     H    0.99388   0.27899   0.09268   1.000
    H99     H    0.99330   0.77863   0.09210   1.000
    C100    C    0.72657   0.96117   0.72871   1.000
    C101    C    0.31390   0.40627   0.63643   1.000
    C102    C    0.31408   0.90624   0.63601   1.000
    C103    C    0.81390   0.40627   0.63643   1.000
    H104    H    0.00820   0.21538   0.25588   1.000
    H105    H    0.00910   0.71614   0.25657   1.000
    H106    H    0.50820   0.21538   0.25588   1.000
    H107    H    0.50910   0.71614   0.25657   1.000
    H108    H    0.43620   0.18690   0.15079   1.000
    H109    H    0.43673   0.68692   0.15198   1.000
    H110    H    0.93620   0.18690   0.15079   1.000
    H111    H    0.93674   0.68692   0.15198   1.000
    H112    H    0.25712   0.32425   0.19718   1.000
    H113    H    0.25677   0.82417   0.19754   1.000
    H114    H    0.75712   0.32425   0.19718   1.000
    H115    H    0.75677   0.82417   0.19754   1.000
    H116    H    0.21014   0.33351   0.44059   1.000
    H117    H    0.20995   0.83348   0.44102   1.000
    H118    H    0.71014   0.33351   0.44059   1.000
    H119    H    0.70994   0.83347   0.44102   1.000
    H120    H    0.20609   0.43793   0.44458   1.000
    H121    H    0.20562   0.93787   0.44487   1.000
    H122    H    0.70608   0.43793   0.44458   1.000
    H123    H    0.70562   0.93786   0.44487   1.000
    H124    H    0.25200   0.42752   0.18956   1.000
    H125    H    0.75200   0.42752   0.18956   1.000
    H126    H    0.75140   0.92740   0.18979   1.000
    H127    H    0.14417   0.01120   0.39897   1.000
    H128    H    0.14437   0.51113   0.39841   1.000
    H129    H    0.64416   0.01120   0.39897   1.000
    H130    H    0.64437   0.51113   0.39841   1.000
    C131    C    0.22906   0.44284   0.31711   1.000
    C132    C    0.22855   0.94276   0.31738   1.000
    C133    C    0.72905   0.44284   0.31710   1.000
    C134    C    0.72855   0.94276   0.31738   1.000
    C135    C    0.22775   0.00540   0.31710   1.000
    H136    H    0.31098   0.01954   0.23502   1.000
    H137    H    0.31173   0.51974   0.23506   1.000
    H138    H    0.81098   0.01954   0.23502   1.000
    H139    H    0.81173   0.51974   0.23506   1.000
    H140    H    0.15222   0.11710   0.40086   1.000
    H141    H    0.15224   0.61700   0.40030   1.000
    H142    H    0.65222   0.11709   0.40086   1.000
    H143    H    0.65224   0.61700   0.40030   1.000
    H144    H    0.38089   0.47285   0.00818   1.000
    H145    H    0.38106   0.97296   0.00877   1.000
    H146    H    0.88088   0.47285   0.00810   1.000
    H147    H    0.88106   0.97296   0.00877   1.000
    H148    H    0.11808   0.44204   0.99238   1.000
    H149    H    0.11813   0.94197   0.99232   1.000
    H150    H    0.61808   0.44204   0.99239   1.000
    H151    H    0.61813   0.94197   0.99233   1.000
    H152    H    0.37519   0.36827   0.00686   1.000
    H153    H    0.37547   0.86837   0.00745   1.000
    H154    H    0.87518   0.36827   0.00685   1.000
    H155    H    0.87546   0.86837   0.00744   1.000
    H156    H    0.12387   0.33940   0.99470   1.000
    H157    H    0.12409   0.83936   0.99493   1.000
    H158    H    0.62387   0.33940   0.99470   1.000
    H159    H    0.62409   0.83936   0.99493   1.000
    H160    H    0.30825   0.12498   0.23964   1.000
    H161    H    0.30885   0.62517   0.23972   1.000
    H162    H    0.80825   0.12498   0.23964   1.000
    H163    H    0.80884   0.62517   0.23972   1.000
    C164    C    0.48960   0.25489   0.54336   1.000
    C165    C    0.48984   0.75457   0.54344   1.000
    C166    C    0.98960   0.25489   0.54336   1.000
    C167    C    0.98984   0.75457   0.54344   1.000
    C168    C    0.47123   0.23855   0.85101   1.000
    C169    C    0.47106   0.73857   0.85060   1.000
    C170    C    0.97123   0.23855   0.85101   1.000
    C171    C    0.97106   0.73857   0.85060   1.000
    C172    C    0.02710   0.27308   0.80580   1.000
    C173    C    0.02755   0.77336   0.80634   1.000
    C174    C    0.52710   0.27308   0.80580   1.000
    C175    C    0.52755   0.77336   0.80634   1.000
    C176    C    0.25445   0.14926   0.74887   1.000
    C177    C    0.25407   0.64919   0.74921   1.000
    C178    C    0.75445   0.14926   0.74887   1.000
    C179    C    0.75407   0.64919   0.74921   1.000
    C180    C    0.28070   0.14399   0.61320   1.000
    C181    C    0.28041   0.64395   0.61359   1.000
    C182    C    0.78070   0.14399   0.61320   1.000
    C183    C    0.78041   0.64395   0.61359   1.000
    C184    C    0.28380   0.08547   0.61214   1.000
    C185    C    0.28336   0.58541   0.61245   1.000
    C186    C    0.78380   0.08547   0.61214   1.000
    C187    C    0.78335   0.58541   0.61245   1.000
    C188    C    0.25696   0.09097   0.75231   1.000
    C189    C    0.25643   0.59088   0.75257   1.000
    C190    C    0.75695   0.09097   0.75231   1.000
    C191    C    0.75643   0.59088   0.75257   1.000
    C192    C    0.27143   0.05725   0.68262   1.000
    C193    C    0.27094   0.55717   0.68290   1.000
    C194    C    0.77144   0.05725   0.68262   1.000
    C195    C    0.77094   0.55717   0.68290   1.000
    C196    C    0.27175   0.49454   0.68309   1.000
    C197    C    0.27224   0.99462   0.68283   1.000
    C198    C    0.77175   0.49454   0.68300   1.000
    C199    C    0.77224   0.99462   0.68283   1.000
    C200    C    0.31697   0.46557   0.63679   1.000
    C201    C    0.31725   0.96556   0.63637   1.000
    C202    C    0.81697   0.46557   0.63679   1.000
    C203    C    0.81725   0.96556   0.63630   1.000
    C204    C    0.22598   0.46104   0.72881   1.000
    C205    C    0.22658   0.96117   0.72871   1.000
    C206    C    0.72598   0.46104   0.72881   1.000
    O207    O    0.14228   0.75651   0.06790   1.000
    O208    O    0.64319   0.25678   0.06934   1.000
    O209    O    0.64228   0.75651   0.06790   1.000
    O210    O    0.13906   0.19256   0.18310   1.000
    O211    O    0.13979   0.69334   0.18320   1.000
    O212    O    0.63907   0.19256   0.18300   1.000
    O213    O    0.63979   0.69334   0.18322   1.000
    O214    O    0.03026   0.17053   0.04126   1.000
    C215    C    0.81407   0.90624   0.63600   1.000
    C216    C    0.17800   0.05447   0.99514   1.000
    C217    C    0.17816   0.55454   0.99556   1.000
    C218    C    0.67799   0.05447   0.99513   1.000
    C219    C    0.67816   0.55454   0.99554   1.000
    C220    C    0.32268   0.07126   0.00424   1.000
    C221    C    0.32277   0.57124   0.00432   1.000
    C222    C    0.82268   0.07126   0.00424   1.000
    C223    C    0.82277   0.57124   0.00431   1.000
    C224    C    0.25022   0.03147   0.99992   1.000
    C225    C    0.25029   0.53149   0.00000   1.000
    C226    C    0.75022   0.03147   0.99991   1.000
    C227    C    0.75030   0.53149   0.00000   1.000
    C228    C    0.18035   0.11360   0.99561   1.000
    C229    C    0.18059   0.61367   0.99608   1.000
    C230    C    0.68035   0.11359   0.99561   1.000
    C231    C    0.68059   0.61367   0.99600   1.000
    C232    C    0.32047   0.12983   0.00391   1.000
    C233    C    0.32065   0.62983   0.00413   1.000
    C234    C    0.82046   0.12983   0.00391   1.000
    C235    C    0.82065   0.62983   0.00415   1.000
    C236    C    0.22647   0.40209   0.72606   1.000
    C237    C    0.22695   0.90222   0.72596   1.000
    C238    C    0.72646   0.40209   0.72605   1.000
    C239    C    0.72695   0.90221   0.72596   1.000
    C240    C    0.01015   0.24545   0.45656   1.000
    C241    C    0.01038   0.74512   0.45664   1.000
    C242    C    0.51015   0.24545   0.45656   1.000
    C243    C    0.51038   0.74512   0.45664   1.000
    C244    C    0.02892   0.26144   0.14900   1.000
    C245    C    0.02876   0.76146   0.14899   1.000
    C246    C    0.52892   0.26144   0.14900   1.000
    C247    C    0.52876   0.76146   0.14899   1.000
    C248    C    0.47243   0.22665   0.19366   1.000
    C249    C    0.47289   0.72694   0.19419   1.000
    C250    C    0.97244   0.22665   0.19360   1.000
    C251    C    0.97289   0.72694   0.19419   1.000
    C252    C    0.24591   0.35082   0.25079   1.000
    C253    C    0.24553   0.85075   0.25113   1.000
    C254    C    0.74591   0.35082   0.25078   1.000
    C255    C    0.74553   0.85075   0.25113   1.000
    C256    C    0.21958   0.35607   0.38641   1.000
    C257    C    0.21928   0.85603   0.38680   1.000
    C258    C    0.71958   0.35607   0.38641   1.000
    C259    C    0.71928   0.85602   0.38680   1.000
    C260    C    0.21664   0.41461   0.38755   1.000
    C261    C    0.21620   0.91454   0.38786   1.000
    C262    C    0.71664   0.41461   0.38755   1.000
    C263    C    0.71619   0.91454   0.38786   1.000
    C264    C    0.24356   0.40914   0.24743   1.000
    C265    C    0.24304   0.90904   0.24770   1.000
    C266    C    0.74356   0.40914   0.24743   1.000
    C267    C    0.74303   0.90904   0.24769   1.000
    C268    C    0.22824   0.50547   0.31692   1.000
    C269    C    0.72775   0.00540   0.31717   1.000
    C270    C    0.72824   0.50547   0.31691   1.000
    C271    C    0.18274   0.03446   0.36364   1.000
    C272    C    0.18302   0.53444   0.36321   1.000
    C273    C    0.68274   0.03445   0.36363   1.000
    C274    C    0.68302   0.53444   0.36321   1.000
    C275    C    0.27341   0.03884   0.27129   1.000
    C276    C    0.27401   0.53898   0.27119   1.000
    C277    C    0.77341   0.03884   0.27129   1.000
    C278    C    0.77401   0.53898   0.27119   1.000
    C279    C    0.18592   0.09378   0.36400   1.000
    C280    C    0.18609   0.59375   0.36357   1.000
    C281    C    0.68591   0.09378   0.36400   1.000
    C282    C    0.68609   0.59375   0.36357   1.000
    C283    C    0.32183   0.44548   0.00445   1.000
    C284    C    0.32199   0.94554   0.00486   1.000
    C285    C    0.82183   0.44548   0.00446   1.000
    C286    C    0.82199   0.94554   0.00486   1.000
    C287    C    0.17722   0.42878   0.99568   1.000
    C288    C    0.17731   0.92875   0.99576   1.000
    C289    C    0.67722   0.42878   0.99569   1.000
    C290    C    0.67731   0.92875   0.99576   1.000
    C291    C    0.24970   0.46853   0.99996   1.000
    C292    C    0.74969   0.46852   0.99993   1.000
    C293    C    0.74977   0.96854   0.40000   1.000
    C294    C    0.31940   0.38635   0.00393   1.000
    C295    C    0.31964   0.88642   0.00438   1.000
    C296    C    0.81940   0.38634   0.00390   1.000
    C297    C    0.81963   0.88642   0.00438   1.000
    C298    C    0.17934   0.37018   0.99587   1.000
    C299    C    0.17952   0.87018   0.99608   1.000
    C300    C    0.67934   0.37018   0.99585   1.000
    C301    C    0.67952   0.87018   0.99608   1.000
    C302    C    0.27304   0.09780   0.27404   1.000
    C303    C    0.27353   0.59793   0.27395   1.000
    C304    C    0.77304   0.09780   0.27404   1.000
    C305    C    0.77353   0.59793   0.27390   1.000
    S306    S    0.38911   0.27455   0.52922   1.000
    S307    S    0.38922   0.77396   0.52944   1.000
    S308    S    0.88911   0.27455   0.52920   1.000
    S309    S    0.88922   0.77396   0.52944   1.000
    S310    S    0.41058   0.28382   0.89275   1.000
    S311    S    0.41046   0.78379   0.89253   1.000
    S312    S    0.91058   0.28382   0.89275   1.000
    S313    S    0.91046   0.78379   0.89253   1.000
    S314    S    0.10127   0.23302   0.78019   1.000
    S315    S    0.10161   0.73331   0.78048   1.000
    S316    S    0.60127   0.23302   0.78019   1.000
    S317    S    0.60161   0.73331   0.78048   1.000
    S318    S    0.11077   0.22605   0.47056   1.000
    S319    S    0.11088   0.72546   0.47079   1.000
    S320    S    0.61077   0.22605   0.47056   1.000
    S321    S    0.61088   0.72546   0.47070   1.000
    S322    S    0.08952   0.21622   0.10747   1.000
    S323    S    0.08941   0.71620   0.10725   1.000
    S324    S    0.58952   0.21622   0.10747   1.000
    S325    S    0.58941   0.71619   0.10725   1.000
    S326    S    0.39838   0.26670   0.21953   1.000
    S327    S    0.39872   0.76699   0.21981   1.000
    S328    S    0.89838   0.26670   0.21953   1.000
    S329    S    0.89872   0.76699   0.21981   1.000
    N330    N    0.25063   0.15113   0.00000   1.000
    N331    N    0.25085   0.65115   0.00000   1.000
    N332    N    0.75062   0.15112   0.00000   1.000
    N333    N    0.75084   0.65115   0.00000   1.000
    N334    N    0.26617   0.17571   0.68051   1.000
    N335    N    0.26591   0.67567   0.68092   1.000
    N336    N    0.76617   0.17571   0.68051   1.000
    N337    N    0.76591   0.67567   0.68092   1.000
    N338    N    0.26906   0.37465   0.68009   1.000
    N339    N    0.26932   0.87469   0.67982   1.000
    N340    N    0.76906   0.37465   0.68010   1.000
    N341    N    0.76932   0.87469   0.67983   1.000
    N342    N    0.24914   0.34886   0.99914   1.000
    N343    N    0.24936   0.84889   0.99943   1.000
    N344    N    0.74915   0.34887   0.99916   1.000
    N345    N    0.74936   0.84889   0.99943   1.000
    N346    N    0.23408   0.32434   0.31908   1.000
    N347    N    0.23383   0.82431   0.31950   1.000
    N348    N    0.73408   0.32434   0.31908   1.000
    N349    N    0.73382   0.82431   0.31949   1.000
    N350    N    0.23066   0.12533   0.32017   1.000
    N351    N    0.23092   0.62536   0.31990   1.000
    N352    N    0.73066   0.12533   0.32017   1.000
    N353    N    0.73093   0.62536   0.31990   1.000
    O354    O    0.37776   0.27592   0.61937   1.000
    O355    O    0.37798   0.77517   0.61962   1.000
    O356    O    0.87776   0.27592   0.61937   1.000
    O357    O    0.87797   0.77517   0.61962   1.000
    O358    O    0.39075   0.33053   0.49655   1.000
    O359    O    0.39051   0.82992   0.49674   1.000
    O360    O    0.89075   0.33053   0.49655   1.000
    O361    O    0.89051   0.82992   0.49670   1.000
    O362    O    0.32852   0.22550   0.46671   1.000
    O363    O    0.32873   0.72489   0.46691   1.000
    O364    O    0.82852   0.22549   0.46671   1.000
    O365    O    0.82873   0.72489   0.46691   1.000
    O366    O    0.35771   0.24351   0.93203   1.000
    O367    O    0.35680   0.74323   0.93065   1.000
    O368    O    0.85771   0.24350   0.93203   1.000
    O369    O    0.85680   0.74323   0.93065   1.000
    O370    O    0.36020   0.30668   0.81678   1.000
    O371    O    0.36092   0.80745   0.81690   1.000
    O372    O    0.86020   0.30668   0.81678   1.000
    O373    O    0.86092   0.80745   0.81690   1.000
    O374    O    0.46977   0.33004   0.95808   1.000
    O375    O    0.46973   0.82948   0.95874   1.000
    O376    O    0.96977   0.33003   0.95808   1.000
    O377    O    0.96973   0.82948   0.95874   1.000
    O378    O    0.14800   0.21684   0.86533   1.000
    O379    O    0.14742   0.71607   0.86519   1.000
    O380    O    0.64800   0.21684   0.86530   1.000
    O381    O    0.64742   0.71607   0.86519   1.000
    O382    O    0.15539   0.27669   0.74688   1.000
    O383    O    0.15663   0.77735   0.74873   1.000
    O384    O    0.65539   0.27669   0.74688   1.000
    O385    O    0.65663   0.77735   0.74874   1.000
    O386    O    0.05584   0.18252   0.71589   1.000
    O387    O    0.05616   0.68342   0.71502   1.000
    O388    O    0.55584   0.18252   0.71589   1.000
    O389    O    0.55617   0.68342   0.71502   1.000
    O390    O    0.12201   0.22485   0.38038   1.000
    O391    O    0.12223   0.72410   0.38063   1.000
    O392    O    0.62201   0.22484   0.38030   1.000
    O393    O    0.62223   0.72410   0.38063   1.000
    O394    O    0.10948   0.17009   0.50326   1.000
    O395    O    0.10923   0.66948   0.50340   1.000
    O396    O    0.60948   0.17009   0.50326   1.000
    O397    O    0.60923   0.66948   0.50344   1.000
    O398    O    0.17126   0.27512   0.53309   1.000
    O399    O    0.17147   0.77452   0.53329   1.000
    O400    O    0.67126   0.27512   0.53309   1.000
    O401    O    0.67147   0.77452   0.53329   1.000
    O402    O    0.14319   0.25678   0.06934   1.000
    O403    O    0.03022   0.66998   0.04192   1.000
    O404    O    0.53026   0.17053   0.04126   1.000
    O405    O    0.53022   0.66998   0.04192   1.000
    O406    O    0.35256   0.28393   0.13481   1.000
    O407    O    0.35199   0.78318   0.13467   1.000
    O408    O    0.85256   0.28393   0.13481   1.000
    O409    O    0.85198   0.78317   0.13467   1.000
    O410    O    0.34338   0.22267   0.25129   1.000
    O411    O    0.34459   0.72333   0.25312   1.000
    O412    O    0.84338   0.22267   0.25130   1.000
    O413    O    0.84459   0.72332   0.25312   1.000
    O414    O    0.44383   0.31659   0.28498   1.000
    O415    O    0.44414   0.81749   0.28411   1.000
    O416    O    0.94383   0.31660   0.28498   1.000
    O417    O    0.94414   0.81749   0.28411   1.000
loop_
    _geom_bond_atom_site_label_1
    _geom_bond_atom_site_label_2
    _geom_bond_distance
    _geom_bond_site_symmetry_2
    _ccdc_geom_bond_type
    N330   Cd7       2.33720      .   S
    N330   C232      1.34821      .   S
    N330   C228      1.35052  1_554   S
    N331   C233      1.34744      .   S
    N331   C229      1.35163  1_554   S
    N331   Cd8       2.33584  1_554   S
    N332   Cd9       2.33719      .   S
    N332   C234      1.34822      .   S
    N332   C230      1.35053  1_554   S
    N333   C235      1.34751      .   S
    N333   C231      1.35119  1_554   S
    N333   Cd10      2.33590  1_554   S
    C227   C223      1.40642      .   S
    C227   C219      1.40468  1_554   S
    C227   C292      1.48501  1_554   S
    C225   C221      1.40651      .   S
    C225   C217      1.40463  1_554   S
    C225   C291      1.48496  1_554   S
    Cd7    O402      2.37770      .   S
    Cd7    O406      2.35261      .   S
    Cd7    O378      2.35141  1_554   S
    Cd7    O366      2.37690  1_554   S
    Cd7    N342      2.33716  1_554   S
    Cd9    O208      2.37769      .   S
    Cd9    O408      2.35259      .   S
    Cd9    O380      2.35173  1_554   S
    Cd9    O368      2.37685  1_554   S
    Cd9    N344      2.33719  1_554   S
    C296   C285      1.38942      .   S
    C296   H154      1.09050      .   S
    C296   N344      1.34827  1_554   S
    C234   C222      1.38987      .   S
    C234   H78       1.08975      .   S
    C232   C220      1.38987      .   S
    C232   H76       1.08975      .   S
    C294   C283      1.38942      .   S
    C294   H152      1.09051      .   S
    C294   N342      1.34828  1_554   S
    C233   C221      1.38989      .   S
    C233   H77       1.08976      .   S
    C235   C223      1.38990      .   S
    C235   H79       1.08974      .   S
    C220   H68       1.08780      .   S
    C220   C224      1.40666  1_554   S
    C222   H70       1.08782      .   S
    C222   C226      1.40663  1_554   S
    C223   H71       1.08778      .   S
    C221   H69       1.08780      .   S
    C295   C284      1.38959      .   S
    C295   H153      1.09056      .   S
    C295   N343      1.34836  1_554   S
    C297   C286      1.38961      .   S
    C297   H155      1.09057      .   S
    C297   N345      1.34832  1_554   S
    C283   H144      1.08768      .   S
    C283   C291      1.40455  1_554   S
    C285   H146      1.08798      .   S
    C285   C292      1.40451  1_554   S
    C286   H147      1.08768      .   S
    C284   H145      1.08768      .   S
    O404   S324      1.47406      .   S
    O214   S322      1.47405      .   S
    O403   S323      1.47414      .   S
    O405   S325      1.47417      .   S
    O209   S325      1.49825      .   S
    O209   Cd10      2.37630  1_554   S
    O207   S323      1.49830      .   S
    O207   Cd8       2.37615  1_554   S
    O402   S322      1.49772      .   S
    O208   S324      1.49770      .   S
    H97    C247      1.09837      .   S
    H99    C245      1.09834  1_655   S
    H96    C246      1.09391      .   S
    H98    C244      1.09388  1_655   S
    S323   C245      1.79524      .   S
    S323   O211      1.48630      .   S
    S325   C247      1.79523      .   S
    S325   O213      1.48653      .   S
    S322   C244      1.79240      .   S
    S322   O210      1.48700      .   S
    S324   C246      1.79241      .   S
    S324   O212      1.48590      .   S
    O407   S327      1.49700      .   S
    O407   Cd8       2.35120  1_554   S
    O409   S329      1.49698      .   S
    O409   Cd10      2.35130  1_554   S
    O406   S326      1.49731      .   S
    O408   S328      1.49732      .   S
    C247   C249      1.52007      .   S
    C247   H95       1.09672      .   S
    C245   C251      1.52007  1_455   S
    C245   H93       1.09678      .   S
    C246   C248      1.52424      .   S
    C246   H94       1.09941      .   S
    C244   C250      1.52353  1_455   S
    C244   H92       1.09943      .   S
    H108   C248      1.09630      .   S
    H110   C250      1.09593      .   S
    H109   C249      1.09641      .   S
    H111   C251      1.09640      .   S
    O212   Cd5       2.42070      .   S
    O210   Cd3       2.41957      .   S
    O211   Cd4       2.41910      .   S
    O213   Cd6       2.41805      .   S
    H124   C264      1.08866      .   S
    H125   C266      1.08864      .   S
    H126   C267      1.08854      .   S
    C250   S328      1.79537      .   S
    C250   H104      1.09861  1_655   S
    C248   S326      1.79502      .   S
    C248   H106      1.09790      .   S
    C249   S327      1.79533      .   S
    C249   H107      1.09797      .   S
    C251   S329      1.79535      .   S
    C251   H105      1.09796  1_655   S
    H114   C254      1.08795      .   S
    H112   C252      1.08804      .   S
    H115   C255      1.08818      .   S
    H113   C253      1.08820      .   S
    S326   O410      1.50043      .   S
    S326   O414      1.45924      .   S
    S328   O412      1.50047      .   S
    S328   O416      1.45928      .   S
    S327   O411      1.50026      .   S
    S327   O415      1.45953      .   S
    S329   O413      1.50027      .   S
    S329   O417      1.45952      .   S
    H138   C277      1.08932      .   S
    H136   C275      1.08930      .   S
    H139   C278      1.08932      .   S
    H137   C276      1.08933      .   S
    H162   C304      1.08995      .   S
    H160   C302      1.08994      .   S
    H161   C303      1.09002      .   S
    H163   C305      1.08946      .   S
    C264   C252      1.38943      .   S
    C264   C131      1.40340      .   S
    C266   C254      1.38941      .   S
    C266   C133      1.40337      .   S
    C267   C255      1.38945      .   S
    C267   C134      1.40356      .   S
    C265   C253      1.38945      .   S
    C265   C132      1.40351      .   S
    C254   N348      1.34908      .   S
    C252   N346      1.34904      .   S
    C253   N347      1.34901      .   S
    C255   N349      1.34897      .   S
    O410   Cd3       2.36431      .   S
    O412   Cd5       2.36427      .   S
    O411   Cd4       2.36099      .   S
    O413   Cd6       2.36024      .   S
    C278   C305      1.38987      .   S
    C278   C270      1.40499      .   S
    C276   C303      1.38982      .   S
    C276   C268      1.40512      .   S
    C275   C302      1.38978      .   S
    C275   C135      1.40420      .   S
    C277   C304      1.38976      .   S
    C277   C269      1.40502      .   S
    C305   N353      1.34926      .   S
    C303   N351      1.34881      .   S
    C304   N352      1.34885      .   S
    C302   N350      1.34885      .   S
    C270   C133      1.48139      .   S
    C270   C274      1.40482      .   S
    C268   C131      1.48139      .   S
    C268   C272      1.40473      .   S
    C135   C132      1.48155  1_545   S
    C135   C271      1.40565      .   S
    C133   C262      1.40395      .   S
    C131   C260      1.40390      .   S
    C269   C134      1.48143  1_545   S
    C269   C273      1.40484      .   S
    C269   C293      1.64235  1_545   S
    C132   C261      1.40389      .   S
    C134   C263      1.40398      .   S
    C134   C293      1.32861      .   S
    N346   Cd3       2.33112      .   S
    N346   C256      1.34970      .   S
    N348   Cd5       2.33112      .   S
    N348   C258      1.34978      .   S
    N349   Cd6       2.33081      .   S
    N349   C259      1.34973      .   S
    N347   Cd4       2.33094      .   S
    N347   C257      1.34967      .   S
    N353   Cd6       2.36745      .   S
    N353   C282      1.34885      .   S
    N351   Cd4       2.36738      .   S
    N351   C280      1.34879      .   S
    N352   Cd5       2.36793      .   S
    N352   C281      1.34895      .   S
    N350   Cd3       2.36792      .   S
    N350   C279      1.34894      .   S
    Cd5    O392      2.38882      .   S
    Cd5    O364      2.37020      .   S
    Cd3    O390      2.38956      .   S
    Cd3    O362      2.37019      .   S
    Cd6    O393      2.38871      .   S
    Cd6    O365      2.36984      .   S
    Cd4    O391      2.38810      .   S
    Cd4    O363      2.36895      .   S
    C274   C282      1.39252      .   S
    C274   H130      1.08954      .   S
    C272   C280      1.39251      .   S
    C272   H128      1.08952      .   S
    C280   H141      1.09202      .   S
    C282   H143      1.09199      .   S
    C273   C281      1.39263      .   S
    C273   H129      1.08960      .   S
    C271   C279      1.39262      .   S
    C271   H127      1.08950      .   S
    C279   H140      1.09211      .   S
    C281   H142      1.09207      .   S
    O392   S320      1.49912      .   S
    O390   S318      1.49785      .   S
    O393   S321      1.49666      .   S
    O391   S319      1.49808      .   S
    C258   C262      1.38959      .   S
    C258   H118      1.08974      .   S
    C256   C260      1.38960      .   S
    C256   H116      1.08977      .   S
    C259   C263      1.38964      .   S
    C259   H119      1.08982      .   S
    C257   C261      1.38963      .   S
    C257   H117      1.08980      .   S
    C262   H122      1.08895      .   S
    C260   H120      1.08893      .   S
    C263   H123      1.08887      .   S
    C263   C293      1.28610      .   S
    C261   H121      1.08890      .   S
    H89    C243      1.09787      .   S
    H91    C241      1.09783  1_655   S
    H90    C240      1.09792  1_655   S
    H88    C242      1.09794      .   S
    H86    C242      1.09813      .   S
    H84    C240      1.09813      .   S
    H87    C243      1.09810      .   S
    H85    C241      1.09810      .   S
    C240   S318      1.80070      .   S
    C240   C166      1.51943  1_455   S
    C242   S320      1.80070      .   S
    C242   C164      1.51944      .   S
    C241   S319      1.80100      .   S
    C241   C167      1.51942  1_455   S
    C243   S321      1.80115      .   S
    C243   C165      1.51943      .   S
    O364   S308      1.50282      .   S
    O362   S306      1.50294      .   S
    O363   S307      1.50258      .   S
    O365   S309      1.50255      .   S
    S318   O394      1.46412      .   S
    S318   O398      1.50257      .   S
    S320   O396      1.46410      .   S
    S320   O400      1.50259      .   S
    S321   O397      1.46470      .   S
    S321   O401      1.50346      .   S
    S319   O395      1.46380      .   S
    S319   O399      1.50287      .   S
    O360   S308      1.46404      .   S
    O358   S306      1.46420      .   S
    O361   S309      1.46438      .   S
    O359   S307      1.46409      .   S
    S308   C166      1.80100      .   S
    S308   O356      1.49823      .   S
    S306   C164      1.80101      .   S
    S306   O354      1.49791      .   S
    S307   C165      1.80069      .   S
    S307   O355      1.49787      .   S
    S309   C167      1.80071      .   S
    S309   O357      1.49788      .   S
    O398   Cd32      2.36861      .   S
    O400   Cd1       2.36897      .   S
    O401   Cd2       2.37006      .   S
    O399   Cd0       2.37020      .   S
    C166   H13       1.09812      .   S
    C166   H15       1.09781  1_655   S
    C164   H11       1.09812      .   S
    C164   H17       1.09784      .   S
    C167   H14       1.09809      .   S
    C167   H16       1.09794  1_655   S
    C165   H12       1.09813      .   S
    C165   H18       1.09796      .   S
    H46    C186      1.08888      .   S
    H44    C184      1.08886      .   S
    H45    C185      1.08896      .   S
    H47    C187      1.08894      .   S
    H40    C180      1.08983      .   S
    H42    C182      1.08983      .   S
    H41    C181      1.08978      .   S
    H43    C183      1.08977      .   S
    H63    C215      1.09206      .   S
    H61    C102      1.09213      .   S
    H60    C101      1.09199      .   S
    H62    C103      1.09202      .   S
    H55    C203      1.08881      .   S
    H53    C201      1.08961      .   S
    H54    C202      1.08955      .   S
    H52    C200      1.08957      .   S
    C184   C180      1.38963      .   S
    C184   C192      1.40402      .   S
    C186   C182      1.38964      .   S
    C186   C194      1.40397      .   S
    C187   C183      1.38960      .   S
    C187   C195      1.40402      .   S
    C185   C181      1.38958      .   S
    C185   C193      1.40404      .   S
    C180   N334      1.34970      .   S
    C182   N336      1.34973      .   S
    C181   N335      1.34970      .   S
    C183   N337      1.34971      .   S
    O354   Cd32      2.38778      .   S
    O356   Cd1       2.38808      .   S
    O355   Cd0       2.38959      .   S
    O357   Cd2       2.38946      .   S
    C215   C203      1.39272      .   S
    C215   N341      1.34899      .   S
    C102   C201      1.39263      .   S
    C102   N339      1.34883      .   S
    C203   C199      1.40552      .   S
    C201   C197      1.40484      .   S
    C103   C202      1.39249      .   S
    C103   N340      1.34887      .   S
    C101   C200      1.39250      .   S
    C101   N338      1.34883      .   S
    C202   C198      1.40395      .   S
    C200   C196      1.40479      .   S
    Cd32   N338      2.36732      .   S
    Cd32   N334      2.33102      .   S
    Cd32   O382      2.36140      .   S
    Cd32   O370      2.41922      .   S
    Cd1    N340      2.36736      .   S
    Cd1    N336      2.33094      .   S
    Cd1    O384      2.36105      .   S
    Cd1    O372      2.41888      .   S
    Cd2    N341      2.36790      .   S
    Cd2    N337      2.33114      .   S
    Cd2    O385      2.36450      .   S
    Cd2    O373      2.41969      .   S
    Cd0    N339      2.36791      .   S
    Cd0    N335      2.33115      .   S
    Cd0    O383      2.36433      .   S
    Cd0    O371      2.41956      .   S
    N339   C237      1.34887      .   S
    N341   C239      1.34882      .   S
    N338   C236      1.34891      .   S
    N340   C238      1.34876      .   S
    N336   C178      1.34899      .   S
    N334   C176      1.34898      .   S
    N337   C179      1.34902      .   S
    N335   C177      1.34902      .   S
    C192   C197      1.48145  1_545   S
    C192   C188      1.40353      .   S
    C194   C199      1.48145  1_545   S
    C194   C190      1.40357      .   S
    C199   C100      1.40503      .   S
    C197   C205      1.40500      .   S
    C195   C198      1.48124      .   S
    C195   C191      1.40331      .   S
    C193   C196      1.48139      .   S
    C193   C189      1.40330      .   S
    C198   C206      1.40604      .   S
    C196   C204      1.40506      .   S
    O387   S315      1.45925      .   S
    O389   S317      1.45924      .   S
    O388   S316      1.45955      .   S
    O386   S314      1.45954      .   S
    C237   C205      1.38976      .   S
    C237   H81       1.08997      .   S
    C239   C100      1.38978      .   S
    C239   H83       1.08995      .   S
    C238   C206      1.38983      .   S
    C238   H82       1.09006      .   S
    C236   C204      1.38982      .   S
    C236   H80       1.08996      .   S
    C205   H57       1.08935      .   S
    C100   H59       1.08932      .   S
    C206   H58       1.08934      .   S
    C204   H56       1.08933      .   S
    H29    C172      1.09784  1_655   S
    H27    C174      1.09785      .   S
    H30    C173      1.09787  1_655   S
    H28    C175      1.09790      .   S
    O382   S314      1.50023      .   S
    O384   S316      1.50023      .   S
    O383   S315      1.50049      .   S
    O385   S317      1.50043      .   S
    C178   C190      1.38943      .   S
    C178   H38       1.08745      .   S
    C176   C188      1.38944      .   S
    C176   H36       1.08820      .   S
    C177   C189      1.38944      .   S
    C177   H37       1.08803      .   S
    C179   C191      1.38943      .   S
    C179   H39       1.08804      .   S
    C188   H48       1.08840      .   S
    C190   H50       1.08855      .   S
    C189   H49       1.08867      .   S
    C191   H51       1.08866      .   S
    S316   C174      1.79529      .   S
    S316   O380      1.49661      .   S
    S314   C172      1.79527      .   S
    S314   O378      1.49699      .   S
    S315   C173      1.79499      .   S
    S315   O379      1.49721      .   S
    S317   C175      1.79498      .   S
    S317   O381      1.49723      .   S
    H20    C169      1.09669      .   S
    H22    C171      1.09670      .   S
    H19    C168      1.09678      .   S
    H21    C170      1.09679      .   S
    C174   H34       1.09646      .   S
    C174   C168      1.52019      .   S
    C172   H31       1.09646      .   S
    C172   C170      1.52016  1_455   S
    C175   H35       1.09636      .   S
    C175   C169      1.51992      .   S
    C173   H33       1.09623      .   S
    C173   C171      1.51989  1_455   S
    O370   S310      1.48653      .   S
    O372   S312      1.48651      .   S
    O371   S311      1.48699      .   S
    O373   S313      1.48700      .   S
    C171   S313      1.79535      .   S
    C171   H24       1.09843  1_655   S
    C169   S311      1.79537      .   S
    C169   H26       1.09846      .   S
    C168   S310      1.79522      .   S
    C168   H25       1.09838      .   S
    C170   S312      1.79523      .   S
    C170   H23       1.09836  1_655   S
    O379   Cd8       2.35287      .   S
    O381   Cd10      2.35276      .   S
    S313   O369      1.49765      .   S
    S313   O377      1.47405      .   S
    S311   O367      1.49765      .   S
    S311   O375      1.47404      .   S
    S312   O368      1.49759      .   S
    S312   O376      1.47416      .   S
    S310   O366      1.49755      .   S
    S310   O374      1.47418      .   S
    O367   Cd8       2.37779      .   S
    O369   Cd10      2.37773      .   S
    H66    C218      1.08773      .   S
    H64    C216      1.08769      .   S
    H67    C219      1.08765      .   S
    H65    C217      1.08765      .   S
    H149   C288      1.08781      .   S
    H151   C290      1.08782      .   S
    H148   C287      1.08783      .   S
    H150   C289      1.08783      .   S
    H74    C230      1.09056      .   S
    H72    C228      1.09057      .   S
    H75    C231      1.09070      .   S
    H73    C229      1.09050      .   S
    H156   C298      1.08976      .   S
    H158   C300      1.08977      .   S
    H157   C299      1.08977      .   S
    H159   C301      1.08976      .   S
    C218   C230      1.38957      .   S
    C218   C226      1.40461      .   S
    C216   C228      1.38959      .   S
    C216   C224      1.40461      .   S
    C219   C231      1.38957      .   S
    C217   C229      1.38945      .   S
    C287   C298      1.38989      .   S
    C287   C291      1.40666      .   S
    C289   C300      1.38990      .   S
    C289   C292      1.40667      .   S
    C288   C299      1.38987      .   S
    C290   C301      1.38987      .   S
    C300   N344      1.34955      .   S
    C298   N342      1.34956      .   S
    C299   N343      1.34961      .   S
    C301   N345      1.34961      .   S
    N343   Cd8       2.33806      .   S
    N345   Cd10      2.33802      .   S
