# CIF file generated by openbabel 2.4.90, see http://openbabel.sf.net
data_I
_chemical_name_common ''
_cell_length_a 16.978
_cell_length_b 23.612
_cell_length_c 15.943
_cell_angle_alpha 95.36
_cell_angle_beta 105.337
_cell_angle_gamma 99.088
_space_group_name_H-M_alt 'P 1'
_space_group_name_Hall 'P 1'
loop_
    _symmetry_equiv_pos_as_xyz
    x,y,z
loop_
    _atom_site_label
    _atom_site_type_symbol
    _atom_site_fract_x
    _atom_site_fract_y
    _atom_site_fract_z
    _atom_site_occupancy
    Cd0     Cd   0.26016   0.77328   0.67531   1.000
    Cd1     Cd   0.75981   0.27322   0.67483   1.000
    Cd2     Cd   0.76016   0.77328   0.67530   1.000
    Cd3     Cd   0.23983   0.22674   0.32469   1.000
    Cd4     Cd   0.24018   0.72680   0.32517   1.000
    Cd5     Cd   0.73983   0.22674   0.32469   1.000
    Cd6     Cd   0.74018   0.72680   0.32510   1.000
    Cd7     Cd   0.25013   0.25006   0.00021   1.000
    Cd8     Cd   0.24986   0.74995   0.99980   1.000
    Cd9     Cd   0.75013   0.25006   0.00021   1.000
    Cd10    Cd   0.74986   0.74995   0.99979   1.000
    Cd11    Cd   0.25981   0.27322   0.67480   1.000
