# CIF file generated by openbabel 2.4.90, see http://openbabel.sf.net
data_I
_chemical_name_common ''
_cell_length_a 16.978
_cell_length_b 23.612
_cell_length_c 15.943
_cell_angle_alpha 95.36
_cell_angle_beta 105.337
_cell_angle_gamma 99.088
_space_group_name_H-M_alt 'P 1'
_space_group_name_Hall 'P 1'
loop_
    _symmetry_equiv_pos_as_xyz
    x,y,z
loop_
    _atom_site_label
    _atom_site_type_symbol
    _atom_site_fract_x
    _atom_site_fract_y
    _atom_site_fract_z
    _atom_site_occupancy
    Cd0     Cd   0.26016   0.77328   0.67531   1.000
    Cd1     Cd   0.75981   0.27322   0.67483   1.000
    Cd2     Cd   0.76016   0.77328   0.67530   1.000
    Cd3     Cd   0.23983   0.22674   0.32469   1.000
    Cd4     Cd   0.24018   0.72680   0.32517   1.000
    Cd5     Cd   0.73983   0.22674   0.32469   1.000
    Cd6     Cd   0.74018   0.72680   0.32510   1.000
    Cd7     Cd   0.25013   0.25006   0.00021   1.000
    Cd8     Cd   0.24986   0.74995   0.99980   1.000
    Cd9     Cd   0.75013   0.25006   0.00021   1.000
    Cd10    Cd   0.74986   0.74995   0.99979   1.000
    Cd11    Cd   0.25981   0.27322   0.67480   1.000
    Ts12    Ts   0.26208   0.74074   0.67718   1.000
    Ts13    Ts   0.26321   0.80708   0.67681   1.000
    Ts14    Ts   0.29943   0.77391   0.65675   1.000
    Ts15    Ts   0.29375   0.78467   0.72251   1.000
    Ts16    Ts   0.22565   0.77463   0.69978   1.000
    Ts17    Ts   0.23059   0.77369   0.62797   1.000
    Ts18    Ts   0.76193   0.24071   0.67672   1.000
    Ts19    Ts   0.76289   0.30703   0.67659   1.000
    Ts20    Ts   0.79913   0.27412   0.65634   1.000
    Ts21    Ts   0.79327   0.28437   0.72215   1.000
    Ts22    Ts   0.72501   0.27437   0.69885   1.000
    Ts23    Ts   0.73029   0.27385   0.62758   1.000
    Ts24    Ts   0.76208   0.74074   0.67717   1.000
    Ts25    Ts   0.76321   0.80708   0.67681   1.000
    Ts26    Ts   0.79943   0.77391   0.65674   1.000
    Ts27    Ts   0.79375   0.78467   0.72250   1.000
    Ts28    Ts   0.72565   0.77463   0.69978   1.000
    Ts29    Ts   0.73060   0.77369   0.62796   1.000
    Ts30    Ts   0.20624   0.21534   0.27749   1.000
    Ts31    Ts   0.23791   0.25927   0.32282   1.000
    Ts32    Ts   0.23677   0.19293   0.32318   1.000
    Ts33    Ts   0.26939   0.22632   0.37203   1.000
    Ts34    Ts   0.20056   0.22611   0.34325   1.000
    Ts35    Ts   0.27434   0.22538   0.30022   1.000
    Ts36    Ts   0.20672   0.71564   0.27785   1.000
    Ts37    Ts   0.23806   0.75930   0.32328   1.000
    Ts38    Ts   0.23709   0.69299   0.32341   1.000
    Ts39    Ts   0.26970   0.72616   0.37242   1.000
    Ts40    Ts   0.20086   0.72590   0.34366   1.000
    Ts41    Ts   0.27498   0.72564   0.30115   1.000
    Ts42    Ts   0.70624   0.21534   0.27746   1.000
    Ts43    Ts   0.73791   0.25927   0.32282   1.000
    Ts44    Ts   0.73677   0.19293   0.32318   1.000
    Ts45    Ts   0.76939   0.22632   0.37203   1.000
    Ts46    Ts   0.70056   0.22611   0.34323   1.000
    Ts47    Ts   0.77434   0.22538   0.30023   1.000
    Ts48    Ts   0.70671   0.71564   0.27781   1.000
    Ts49    Ts   0.73806   0.75930   0.32323   1.000
    Ts50    Ts   0.73709   0.69299   0.32337   1.000
    Ts51    Ts   0.76969   0.72616   0.37237   1.000
    Ts52    Ts   0.70086   0.72590   0.34361   1.000
    Ts53    Ts   0.77498   0.72564   0.30111   1.000
    Ts54    Ts   0.25030   0.21709   0.00014   1.000
    Ts55    Ts   0.24980   0.28300   0.99985   1.000
    Ts56    Ts   0.28599   0.24788   0.97748   1.000
    Ts57    Ts   0.21609   0.23899   0.95525   1.000
    Ts58    Ts   0.21449   0.25230   0.02325   1.000
    Ts59    Ts   0.28428   0.26135   0.04508   1.000
    Ts60    Ts   0.21400   0.75214   0.02250   1.000
    Ts61    Ts   0.25019   0.71702   0.99987   1.000
    Ts62    Ts   0.24970   0.78293   0.99968   1.000
    Ts63    Ts   0.28551   0.74771   0.97675   1.000
    Ts64    Ts   0.21572   0.73866   0.95493   1.000
    Ts65    Ts   0.28390   0.76102   0.04476   1.000
    Ts66    Ts   0.71449   0.25230   0.02325   1.000
    Ts67    Ts   0.75030   0.21708   0.00014   1.000
    Ts68    Ts   0.74980   0.28300   0.99986   1.000
    Ts69    Ts   0.78599   0.24788   0.97748   1.000
    Ts70    Ts   0.71609   0.23899   0.95524   1.000
    Ts71    Ts   0.78428   0.26135   0.04508   1.000
    Ts72    Ts   0.71400   0.75214   0.02249   1.000
    Ts73    Ts   0.75019   0.71702   0.99986   1.000
    Ts74    Ts   0.74970   0.78293   0.99967   1.000
    Ts75    Ts   0.78551   0.74771   0.97674   1.000
    Ts76    Ts   0.71571   0.73866   0.95492   1.000
    Ts77    Ts   0.78390   0.76102   0.04475   1.000
    Ts78    Ts   0.26193   0.24071   0.67670   1.000
    Ts79    Ts   0.26289   0.30703   0.67656   1.000
    Ts80    Ts   0.29913   0.27412   0.65632   1.000
    Ts81    Ts   0.29327   0.28437   0.72213   1.000
    Ts82    Ts   0.22501   0.27437   0.69883   1.000
    Ts83    Ts   0.23029   0.27385   0.62756   1.000
loop_
    _geom_bond_atom_site_label_1
    _geom_bond_atom_site_label_2
    _geom_bond_distance
    _geom_bond_site_symmetry_2
    _ccdc_geom_bond_type
    Cd0    Ts12      0.77705      .   S
    Cd0    Ts13      0.78930      .   S
    Cd0    Ts14      0.79653      .   S
    Cd0    Ts15      0.80652      .   S
    Cd0    Ts16      0.78811      .   S
    Cd0    Ts17      0.79007      .   S
    Cd1    Ts18      0.77698      .   S
    Cd1    Ts19      0.78912      .   S
    Cd1    Ts20      0.79603      .   S
    Cd1    Ts21      0.80629      .   S
    Cd1    Ts22      0.78702      .   S
    Cd1    Ts23      0.78966      .   S
    Cd2    Ts24      0.77705      .   S
    Cd2    Ts25      0.78930      .   S
    Cd2    Ts26      0.79649      .   S
    Cd2    Ts27      0.80656      .   S
    Cd2    Ts28      0.78817      .   S
    Cd2    Ts29      0.79002      .   S
    Cd3    Ts30      0.80652      .   S
    Cd3    Ts31      0.77704      .   S
    Cd3    Ts32      0.78931      .   S
    Cd3    Ts33      0.79006      .   S
    Cd3    Ts34      0.79652      .   S
    Cd3    Ts35      0.78810      .   S
    Cd4    Ts36      0.80637      .   S
    Cd4    Ts37      0.77698      .   S
    Cd4    Ts38      0.78913      .   S
    Cd4    Ts39      0.78965      .   S
    Cd4    Ts40      0.79603      .   S
    Cd4    Ts41      0.78700      .   S
    Cd5    Ts42      0.80690      .   S
    Cd5    Ts43      0.77704      .   S
    Cd5    Ts44      0.78931      .   S
    Cd5    Ts45      0.79007      .   S
    Cd5    Ts46      0.79627      .   S
    Cd5    Ts47      0.78809      .   S
    Cd6    Ts48      0.80602      .   S
    Cd6    Ts49      0.77694      .   S
    Cd6    Ts50      0.78915      .   S
    Cd6    Ts51      0.78995      .   S
    Cd6    Ts52      0.79624      .   S
    Cd6    Ts53      0.78675      .   S
    Cd7    Ts54      0.77907      .   S
    Cd7    Ts55      0.77905  1_554   S
    Cd7    Ts56      0.79230  1_554   S
    Cd7    Ts57      0.78380  1_554   S
    Cd7    Ts58      0.79257      .   S
    Cd7    Ts59      0.78420      .   S
    Cd8    Ts60      0.79205  1_556   S
    Cd8    Ts61      0.77861      .   S
    Cd8    Ts62      0.77935      .   S
    Cd8    Ts63      0.79260      .   S
    Cd8    Ts64      0.78429      .   S
    Cd8    Ts65      0.78373  1_556   S
    Cd9    Ts66      0.79256      .   S
    Cd9    Ts67      0.77906      .   S
    Cd9    Ts68      0.77906  1_554   S
    Cd9    Ts69      0.79228  1_554   S
    Cd9    Ts70      0.78391  1_554   S
    Cd9    Ts71      0.78420      .   S
    Cd10   Ts72      0.79210  1_556   S
    Cd10   Ts73      0.77863      .   S
    Cd10   Ts74      0.77934      .   S
    Cd10   Ts75      0.79258      .   S
    Cd10   Ts76      0.78425      .   S
    Cd10   Ts77      0.78377  1_556   S
    Cd11   Ts78      0.77701      .   S
    Cd11   Ts79      0.78911      .   S
    Cd11   Ts80      0.79593      .   S
    Cd11   Ts81      0.80641      .   S
    Cd11   Ts82      0.78713      .   S
    Cd11   Ts83      0.78954      .   S
