# CIF file generated by openbabel 2.4.90, see http://openbabel.sf.net
data_I
_chemical_name_common ''
_cell_length_a 13.69
_cell_length_b 16.701
_cell_length_c 16.701
_cell_angle_alpha 87.613
_cell_angle_beta 78.271
_cell_angle_gamma 78.214
_space_group_name_H-M_alt 'P 1'
_space_group_name_Hall 'P 1'
loop_
    _symmetry_equiv_pos_as_xyz
    x,y,z
loop_
    _atom_site_label
    _atom_site_type_symbol
    _atom_site_fract_x
    _atom_site_fract_y
    _atom_site_fract_z
    _atom_site_occupancy
    Mc0     Mc   0.96668   0.94373   0.16644   1.000
    Mc1     Mc   0.53336   0.05627   0.83353   1.000
    Mc2     Mc   0.84050   0.97896   0.29563   1.000
    Mc3     Mc   0.65954   0.02103   0.70433   1.000
    Ts4     Ts   0.75002   0.99962   0.99979   1.000
    Mc5     Mc   0.07903   0.29564   0.52094   1.000
    Mc6     Mc   0.81207   0.83348   0.44373   1.000
    Mc7     Mc   0.18796   0.16652   0.55624   1.000
    Mc8     Mc   0.92100   0.70436   0.47903   1.000
    Ts9     Ts   0.00001   0.99981   0.49998   1.000
    Mc10    Mc   0.52423   0.47895   0.79550   1.000
    Mc11    Mc   0.97581   0.52105   0.20446   1.000
    Mc12    Mc   0.02103   0.55627   0.33339   1.000
    Mc13    Mc   0.47899   0.44373   0.66658   1.000
    Ts14    Ts   0.75001   0.50000   0.49998   1.000
    Mc15    Mc   0.34049   0.97897   0.29563   1.000
    Mc16    Mc   0.03335   0.05627   0.83353   1.000
    Mc17    Mc   0.46667   0.94373   0.16644   1.000
    Mc18    Mc   0.15953   0.02103   0.70433   1.000
    Ts19    Ts   0.25001   0.99962   0.99979   1.000
    Mc20    Mc   0.05001   0.33346   0.94360   1.000
    Mc21    Mc   0.98762   0.20445   0.97894   1.000
    Mc22    Mc   0.51241   0.79555   0.02103   1.000
    Mc23    Mc   0.45001   0.66654   0.05637   1.000
    Ts24    Ts   0.75002   0.50000   0.99960   1.000
    Mc25    Mc   0.47580   0.52105   0.20446   1.000
    Mc26    Mc   0.52104   0.55627   0.33339   1.000
    Mc27    Mc   0.02422   0.47895   0.79550   1.000
    Mc28    Mc   0.97900   0.44373   0.66658   1.000
    Ts29    Ts   0.25001   0.50000   0.49998   1.000
    Mc30    Mc   0.48761   0.20445   0.97894   1.000
    Mc31    Mc   0.55002   0.33346   0.94360   1.000
    Mc32    Mc   0.95002   0.66654   0.05637   1.000
    Mc33    Mc   0.01241   0.79555   0.02103   1.000
    Ts34    Ts   0.25001   0.50000   0.99960   1.000
    Mc35    Mc   0.68796   0.16652   0.55624   1.000
    Mc36    Mc   0.31206   0.83348   0.44373   1.000
    Mc37    Mc   0.42099   0.70436   0.47903   1.000
    Mc38    Mc   0.57904   0.29564   0.52094   1.000
    Ts39    Ts   0.50001   0.99981   0.49998   1.000
