# CIF file generated by openbabel 2.4.90, see http://openbabel.sf.net
data_I
_chemical_name_common ''
_cell_length_a 13.69
_cell_length_b 16.701
_cell_length_c 16.701
_cell_angle_alpha 87.613
_cell_angle_beta 78.271
_cell_angle_gamma 78.214
_space_group_name_H-M_alt 'P 1'
_space_group_name_Hall 'P 1'
loop_
    _symmetry_equiv_pos_as_xyz
    x,y,z
loop_
    _atom_site_label
    _atom_site_type_symbol
    _atom_site_fract_x
    _atom_site_fract_y
    _atom_site_fract_z
    _atom_site_occupancy
    H0      H    0.11138   0.71949   0.39469   1.000
    H1      H    0.61139   0.71949   0.39469   1.000
    H2      H    0.18762   0.79580   0.39068   1.000
    H3      H    0.68763   0.79580   0.39068   1.000
    H4      H    0.01674   0.71319   0.29117   1.000
    H5      H    0.51675   0.71319   0.29117   1.000
    H6      H    0.16819   0.78047   0.10526   1.000
    H7      H    0.66820   0.78048   0.10526   1.000
    H8      H    0.28046   0.70416   0.10937   1.000
    H9      H    0.78047   0.70416   0.10937   1.000
    H10     H    0.01895   0.78676   0.20862   1.000
    H11     H    0.51895   0.78676   0.20862   1.000
    H12     H    0.30862   0.10529   0.71946   1.000
    H13     H    0.80863   0.10529   0.71946   1.000
    H14     H    0.38286   0.10932   0.79582   1.000
    H15     H    0.88287   0.10932   0.79582   1.000
    H16     H    0.16245   0.20876   0.71310   1.000
    H17     H    0.66246   0.20876   0.71310   1.000
    H18     H    0.22134   0.39477   0.78039   1.000
    H19     H    0.72135   0.39477   0.78039   1.000
    C20     C    0.15952   0.75576   0.35429   1.000
    C21     C    0.65953   0.75576   0.35429   1.000
    H22     H    0.33560   0.39071   0.70416   1.000
    H23     H    0.83561   0.39071   0.70416   1.000
    H24     H    0.12360   0.29133   0.78664   1.000
    H25     H    0.62361   0.29133   0.78664   1.000
    H26     H    0.38864   0.28051   0.60528   1.000
    H27     H    0.88865   0.28051   0.60528   1.000
    H28     H    0.31240   0.20420   0.60920   1.000
    H29     H    0.81241   0.20420   0.60920   1.000
    H30     H    0.48328   0.28681   0.70880   1.000
    H31     H    0.98328   0.28680   0.70880   1.000
    C32     C    0.16338   0.85429   0.24420   1.000
    H33     H    0.33183   0.21952   0.89470   1.000
    H34     H    0.83183   0.21952   0.89470   1.000
    H35     H    0.21956   0.29584   0.89060   1.000
    H36     H    0.71957   0.29584   0.89060   1.000
    H37     H    0.48107   0.21324   0.79135   1.000
    H38     H    0.98108   0.21324   0.79135   1.000
    H39     H    0.19140   0.89471   0.28051   1.000
    H40     H    0.69141   0.89471   0.28051   1.000
    H41     H    0.11716   0.89067   0.20415   1.000
    H42     H    0.61717   0.89067   0.20415   1.000
    H43     H    0.33757   0.79123   0.28687   1.000
    H44     H    0.83758   0.79123   0.28687   1.000
    H45     H    0.27868   0.60523   0.21958   1.000
    H46     H    0.77868   0.60523   0.21958   1.000
    H47     H    0.16441   0.60929   0.29581   1.000
    H48     H    0.66442   0.60929   0.29581   1.000
    H49     H    0.37641   0.70867   0.21333   1.000
    H50     H    0.87642   0.70867   0.21333   1.000
    C51     C    0.21430   0.74419   0.14570   1.000
    C52     C    0.71431   0.74419   0.14570   1.000
    C53     C    0.33663   0.14570   0.75576   1.000
    C54     C    0.83664   0.14571   0.75576   1.000
    C55     C    0.28756   0.35435   0.74417   1.000
    C56     C    0.78757   0.35434   0.74417   1.000
    C57     C    0.34050   0.24424   0.64567   1.000
    C58     C    0.84051   0.24424   0.64567   1.000
    C59     C    0.28572   0.25580   0.85427   1.000
    C60     C    0.78572   0.25580   0.85427   1.000
    C61     C    0.66339   0.85429   0.24421   1.000
    C62     C    0.21246   0.64565   0.25580   1.000
    C63     C    0.71246   0.64565   0.25580   1.000
    C64     C    0.06327   0.74997   0.24992   1.000
    C65     C    0.56328   0.74997   0.24992   1.000
    C66     C    0.18845   0.25004   0.74900   1.000
    C67     C    0.68846   0.25004   0.74900   1.000
    C68     C    0.43675   0.25002   0.75005   1.000
    C69     C    0.93676   0.25002   0.75005   1.000
    C70     C    0.31156   0.74996   0.25007   1.000
    C71     C    0.81157   0.74996   0.25007   1.000
    S72     S    0.33074   0.77056   0.50825   1.000
    S73     S    0.83075   0.77056   0.50825   1.000
    S74     S    0.46962   0.72936   0.99178   1.000
    S75     S    0.96963   0.72936   0.99178   1.000
    S76     S    0.08407   0.99174   0.77064   1.000
    S77     S    0.58408   0.99174   0.77060   1.000
    S78     S    0.46662   0.50823   0.72945   1.000
    S79     S    0.96663   0.50823   0.72945   1.000
    S80     S    0.16928   0.22944   0.49171   1.000
    S81     S    0.66928   0.22944   0.49171   1.000
    S82     S    0.03040   0.27063   0.00818   1.000
    S83     S    0.53041   0.27063   0.00818   1.000
    S84     S    0.41595   0.00825   0.22933   1.000
    S85     S    0.91596   0.00825   0.22933   1.000
    S86     S    0.03340   0.49177   0.27050   1.000
    S87     S    0.53340   0.49177   0.27050   1.000
    N88     N    0.09804   0.80600   0.29978   1.000
    N89     N    0.59805   0.80600   0.29978   1.000
    N90     N    0.15074   0.69394   0.20014   1.000
    N91     N    0.65075   0.69394   0.20014   1.000
    N92     N    0.24804   0.20019   0.80596   1.000
    N93     N    0.74805   0.20019   0.80596   1.000
    N94     N    0.25111   0.29986   0.69391   1.000
    N95     N    0.75112   0.29986   0.69391   1.000
    N96     N    0.40198   0.19400   0.70019   1.000
    N97     N    0.90199   0.19400   0.70019   1.000
    N98     N    0.34927   0.30605   0.79983   1.000
    N99     N    0.84928   0.30605   0.79983   1.000
    N100    N    0.25198   0.79981   0.19401   1.000
    N101    N    0.75199   0.79981   0.19401   1.000
    N102    N    0.24891   0.70013   0.30606   1.000
    N103    N    0.74892   0.70013   0.30606   1.000
    O104    O    0.23794   0.73992   0.54494   1.000
    O105    O    0.73794   0.73992   0.54494   1.000
    O106    O    0.37986   0.76006   0.95498   1.000
    O107    O    0.87986   0.76006   0.95498   1.000
    O108    O    0.00947   0.95496   0.74013   1.000
    O109    O    0.50947   0.95496   0.74013   1.000
    O110    O    0.35861   0.54498   0.76026   1.000
    O111    O    0.85862   0.54498   0.76026   1.000
    O112    O    0.26208   0.26008   0.45503   1.000
    O113    O    0.76209   0.26008   0.45503   1.000
    O114    O    0.12016   0.23994   0.04499   1.000
    O115    O    0.62017   0.23994   0.04499   1.000
    O116    O    0.49055   0.04504   0.25984   1.000
    O117    O    0.99056   0.04504   0.25984   1.000
    O118    O    0.14141   0.45502   0.23971   1.000
    O119    O    0.64142   0.45502   0.23971   1.000
loop_
    _geom_bond_atom_site_label_1
    _geom_bond_atom_site_label_2
    _geom_bond_distance
    _geom_bond_site_symmetry_2
    _ccdc_geom_bond_type
    S83    O115      1.47454      .   S
    S82    O114      1.47454      .   S
    H6     C51       1.09761      .   S
    H7     C52       1.09762      .   S
    H9     C52       1.09473      .   S
    H8     C51       1.09472      .   S
    C52    N101      1.48566      .   S
    C52    N91       1.48360      .   S
    C51    N100      1.48566      .   S
    C51    N90       1.48360      .   S
    N101   C61       1.48362      .   S
    N101   C71       1.48434      .   S
    N100   C32       1.48354      .   S
    N100   C70       1.48434      .   S
    N90    C64       1.48428      .   S
    N90    C62       1.48552      .   S
    N91    C65       1.48430      .   S
    N91    C63       1.48552      .   S
    H42    C61       1.09475      .   S
    H41    C32       1.09464      .   S
    H10    C64       1.09725      .   S
    H11    C65       1.09724      .   S
    H49    C70       1.09720      .   S
    H50    C71       1.09720      .   S
    H45    C62       1.09757      .   S
    H46    C63       1.09757      .   S
    S84    O116      1.47446      .   S
    S85    O117      1.47447      .   S
    O118   S86       1.47450      .   S
    O119   S87       1.47450      .   S
    C32    H39       1.09763      .   S
    C32    N88       1.48565      .   S
    C61    H40       1.09752      .   S
    C61    N89       1.48558      .   S
    C65    H5        1.09721      .   S
    C65    N89       1.48442      .   S
    C64    H4        1.09722      .   S
    C64    N88       1.48442      .   S
    C70    H43       1.09728      .   S
    C70    N102      1.48435      .   S
    C71    H44       1.09726      .   S
    C71    N103      1.48437      .   S
    C62    H47       1.09481      .   S
    C62    N102      1.48356      .   S
    C63    H48       1.09480      .   S
    C63    N103      1.48355      .   S
    N89    C21       1.48346      .   S
    N88    C20       1.48347      .   S
    N103   C21       1.48545      .   S
    N102   C20       1.48545      .   S
    C21    H3        1.09476      .   S
    C21    H1        1.09765      .   S
    C20    H2        1.09478      .   S
    C20    H0        1.09764      .   S
    O113   S81       1.47456      .   S
    O112   S80       1.47456      .   S
    S72    O104      1.47460      .   S
    S73    O105      1.47459      .   S
    H26    C57       1.09758      .   S
    H27    C58       1.09757      .   S
    H29    C58       1.09565      .   S
    H28    C57       1.09566      .   S
    C58    N95       1.48551      .   S
    C58    N97       1.48359      .   S
    C57    N94       1.48551      .   S
    C57    N96       1.48357      .   S
    N94    C55       1.48358      .   S
    N94    C66       1.47706      .   S
    N95    C56       1.48356      .   S
    N95    C67       1.47706      .   S
    N96    C68       1.48442      .   S
    N96    C53       1.48559      .   S
    N97    C69       1.48443      .   S
    N97    C54       1.48557      .   S
    H23    C56       1.09481      .   S
    H22    C55       1.09480      .   S
    H31    C69       1.09721      .   S
    H30    C68       1.09721      .   S
    H17    C67       1.08753      .   S
    H16    C66       1.08752      .   S
    H12    C53       1.09751      .   S
    H13    C54       1.09752      .   S
    S79    O111      1.47455      .   S
    S78    O110      1.47456      .   S
    O109   S77       1.47413      .   S
    O108   S76       1.47446      .   S
    C56    H19       1.09756      .   S
    C56    N99       1.48552      .   S
    C55    H18       1.09756      .   S
    C55    N98       1.48553      .   S
    C66    H24       1.10361      .   S
    C66    N92       1.49519      .   S
    C67    H25       1.10360      .   S
    C67    N93       1.49520      .   S
    C69    H38       1.09724      .   S
    C69    N99       1.48430      .   S
    C68    H37       1.09723      .   S
    C68    N98       1.48430      .   S
    C53    H14       1.09475      .   S
    C53    N92       1.48363      .   S
    C54    H15       1.09475      .   S
    C54    N93       1.48361      .   S
    N99    C60       1.48360      .   S
    N98    C59       1.48360      .   S
    N92    C59       1.48566      .   S
    N93    C60       1.48568      .   S
    C60    H36       1.09472      .   S
    C60    H34       1.09751      .   S
    C59    H35       1.09473      .   S
    C59    H33       1.09751      .   S
    O106   S74       1.47444      .   S
    O107   S75       1.47444      .   S
