# CIF file generated by openbabel 2.4.90, see http://openbabel.sf.net
data_I
_chemical_name_common ''
_cell_length_a 13.69
_cell_length_b 16.701
_cell_length_c 16.701
_cell_angle_alpha 87.613
_cell_angle_beta 78.271
_cell_angle_gamma 78.214
_space_group_name_H-M_alt 'P 1'
_space_group_name_Hall 'P 1'
loop_
    _symmetry_equiv_pos_as_xyz
    x,y,z
loop_
    _atom_site_label
    _atom_site_type_symbol
    _atom_site_fract_x
    _atom_site_fract_y
    _atom_site_fract_z
    _atom_site_occupancy
    H0      H    0.36066   0.77781   0.64022   1.000
    H1      H    0.86067   0.77781   0.64022   1.000
    H2      H    0.29635   0.87308   0.60867   1.000
    H3      H    0.79635   0.87308   0.60867   1.000
    H4      H    0.47639   0.86609   0.63434   1.000
    H5      H    0.97640   0.86609   0.63434   1.000
    H6      H    0.02508   0.79767   0.55067   1.000
    H7      H    0.52509   0.79767   0.55067   1.000
    H8      H    0.32345   0.98675   0.54940   1.000
    H9      H    0.82346   0.98675   0.54940   1.000
    H10     H    0.40879   0.00948   0.60891   1.000
    H11     H    0.90880   0.00948   0.60891   1.000
    H12     H    0.08924   0.94922   0.57294   1.000
    H13     H    0.58925   0.94922   0.57294   1.000
    H14     H    0.13518   0.87929   0.49038   1.000
    H15     H    0.63519   0.87929   0.49038   1.000
    H16     H    0.06869   0.72186   0.85986   1.000
    H17     H    0.56869   0.72187   0.85986   1.000
    H18     H    0.03632   0.62659   0.89159   1.000
    H19     H    0.53632   0.62659   0.89150   1.000
    H20     H    0.22561   0.63401   0.86584   1.000
    H21     H    0.72561   0.63401   0.86580   1.000
    H22     H    0.19845   0.70233   0.94958   1.000
    H23     H    0.69846   0.70233   0.94958   1.000
    H24     H    0.09158   0.51262   0.95032   1.000
    H25     H    0.59159   0.51262   0.95030   1.000
    H26     H    0.21786   0.49052   0.89096   1.000
    H27     H    0.71787   0.49052   0.89096   1.000
    H28     H    0.34967   0.55128   0.92723   1.000
    H29     H    0.84968   0.55129   0.92723   1.000
    H30     H    0.31938   0.62107   0.00000   1.000
    H31     H    0.81938   0.62107   0.00000   1.000
    H32     H    0.17990   0.85985   0.77785   1.000
    H33     H    0.67991   0.85985   0.77785   1.000
    H34     H    0.10007   0.89131   0.87314   1.000
    H35     H    0.60007   0.89131   0.87310   1.000
    H36     H    0.29287   0.86577   0.86599   1.000
    H37     H    0.79288   0.86577   0.86599   1.000
    H38     H    0.29974   0.94952   0.79765   1.000
    H39     H    0.79975   0.94952   0.79765   1.000
    H40     H    0.09799   0.95049   0.98690   1.000
    H41     H    0.59800   0.95049   0.98689   1.000
    H42     H    0.21309   0.89103   0.00943   1.000
    H43     H    0.71310   0.89102   0.00943   1.000
    H44     H    0.37538   0.92712   0.94905   1.000
    H45     H    0.87538   0.92712   0.94905   1.000
    H46     H    0.38005   0.00000   0.87920   1.000
    H47     H    0.88006   0.00000   0.87920   1.000
    H48     H    0.99985   0.64027   0.72198   1.000
    H49     H    0.49986   0.64027   0.72198   1.000
    H50     H    0.48298   0.60856   0.62678   1.000
    H51     H    0.98299   0.60856   0.62678   1.000
    H52     H    0.15950   0.63439   0.63378   1.000
    H53     H    0.65951   0.63439   0.63378   1.000
    H54     H    0.17429   0.55071   0.70220   1.000
    H55     H    0.67430   0.55071   0.70222   1.000
    H56     H    0.06685   0.54959   0.51300   1.000
    H57     H    0.56686   0.54959   0.51302   1.000
    H58     H    0.16354   0.60900   0.49044   1.000
    H59     H    0.66354   0.60900   0.49044   1.000
    H60     H    0.31387   0.57287   0.55087   1.000
    H61     H    0.81388   0.57287   0.55087   1.000
    H62     H    0.32498   0.49027   0.62078   1.000
    H63     H    0.82498   0.49027   0.62078   1.000
    C64     C    0.57910   0.93478   0.51124   1.000
    C65     C    0.06672   0.67734   0.91025   1.000
    H66     H    0.13936   0.22219   0.35970   1.000
    H67     H    0.63936   0.22219   0.35970   1.000
    H68     H    0.20367   0.12692   0.39130   1.000
    H69     H    0.70368   0.12692   0.39130   1.000
    H70     H    0.02363   0.13391   0.36563   1.000
    H71     H    0.52364   0.13391   0.36563   1.000
    H72     H    0.47494   0.20233   0.44930   1.000
    H73     H    0.97494   0.20233   0.44930   1.000
    H74     H    0.17657   0.01325   0.45057   1.000
    H75     H    0.67658   0.01325   0.45057   1.000
    H76     H    0.09123   0.99052   0.39106   1.000
    H77     H    0.59123   0.99052   0.39106   1.000
    H78     H    0.41078   0.05078   0.42703   1.000
    H79     H    0.91078   0.05078   0.42703   1.000
    H80     H    0.36483   0.12070   0.50959   1.000
    H81     H    0.86484   0.12070   0.50959   1.000
    H82     H    0.43133   0.27813   0.14011   1.000
    H83     H    0.93134   0.27813   0.14011   1.000
    C84     C    0.32540   0.04641   0.00000   1.000
    C85     C    0.82541   0.04641   0.00000   1.000
    C86     C    0.16554   0.01115   0.06528   1.000
    C87     C    0.66554   0.01115   0.06528   1.000
    H88     H    0.46370   0.37341   0.10838   1.000
    H89     H    0.96371   0.37341   0.10838   1.000
    H90     H    0.27441   0.36599   0.13413   1.000
    H91     H    0.77442   0.36599   0.13413   1.000
    H92     H    0.30157   0.29767   0.05030   1.000
    H93     H    0.80157   0.29767   0.05038   1.000
    H94     H    0.40843   0.48738   0.04965   1.000
    H95     H    0.90844   0.48738   0.04965   1.000
    H96     H    0.28216   0.50948   0.10901   1.000
    H97     H    0.78216   0.50948   0.10901   1.000
    H98     H    0.15035   0.44871   0.07274   1.000
    H99     H    0.65036   0.44871   0.07274   1.000
    H100    H    0.18064   0.37893   0.99005   1.000
    H101    H    0.68065   0.37893   0.99005   1.000
    H102    H    0.32011   0.14015   0.22212   1.000
    H103    H    0.82012   0.14015   0.22212   1.000
    H104    H    0.39995   0.10869   0.12683   1.000
    H105    H    0.89996   0.10869   0.12683   1.000
    H106    H    0.20715   0.13423   0.13398   1.000
    H107    H    0.70715   0.13423   0.13398   1.000
    H108    H    0.20028   0.05048   0.20232   1.000
    H109    H    0.70028   0.05048   0.20232   1.000
    H110    H    0.40202   0.04951   0.01307   1.000
    H111    H    0.90203   0.04951   0.01307   1.000
    H112    H    0.28693   0.10897   0.99050   1.000
    H113    H    0.78694   0.10897   0.99054   1.000
    H114    H    0.12464   0.07288   0.05091   1.000
    H115    H    0.62465   0.07288   0.05091   1.000
    H116    H    0.11997   0.99024   0.12077   1.000
    H117    H    0.61997   0.99024   0.12070   1.000
    H118    H    0.50017   0.35973   0.27799   1.000
    H119    H    0.00000   0.35973   0.27799   1.000
    H120    H    0.01704   0.39144   0.37318   1.000
    H121    H    0.51705   0.39144   0.37318   1.000
    H122    H    0.34052   0.36561   0.36610   1.000
    H123    H    0.84053   0.36561   0.36610   1.000
    H124    H    0.32573   0.44929   0.29775   1.000
    H125    H    0.82573   0.44929   0.29775   1.000
    H126    H    0.43317   0.45041   0.48695   1.000
    H127    H    0.93318   0.45041   0.48695   1.000
    H128    H    0.33648   0.39100   0.50953   1.000
    H129    H    0.83649   0.39100   0.50953   1.000
    H130    H    0.18615   0.42712   0.44910   1.000
    H131    H    0.68615   0.42712   0.44910   1.000
    H132    H    0.17504   0.50972   0.37918   1.000
    H133    H    0.67505   0.50972   0.37918   1.000
    C134    C    0.36140   0.82242   0.58991   1.000
    C135    C    0.86141   0.82242   0.58991   1.000
    C136    C    0.46361   0.84940   0.57440   1.000
    C137    C    0.96362   0.84940   0.57440   1.000
    C138    C    0.40155   0.99504   0.54636   1.000
    C139    C    0.90156   0.99504   0.54636   1.000
    C140    C    0.07909   0.93478   0.51124   1.000
    C141    C    0.56673   0.67735   0.91025   1.000
    C142    C    0.17471   0.65054   0.92579   1.000
    C143    C    0.67472   0.65054   0.92579   1.000
    C144    C    0.17223   0.50469   0.95349   1.000
    C145    C    0.67224   0.50469   0.95349   1.000
    C146    C    0.30164   0.56549   0.98894   1.000
    C147    C    0.80165   0.56549   0.98894   1.000
    C148    C    0.15563   0.91016   0.82246   1.000
    C149    C    0.65564   0.91016   0.82246   1.000
    C150    C    0.25018   0.92573   0.84930   1.000
    C151    C    0.75019   0.92573   0.84930   1.000
    C152    C    0.17462   0.95359   0.99510   1.000
    C153    C    0.67463   0.95358   0.99510   1.000
    C154    C    0.33448   0.98884   0.93469   1.000
    C155    C    0.83449   0.98884   0.93469   1.000
    C156    C    0.02287   0.58989   0.67745   1.000
    C157    C    0.52288   0.58989   0.67745   1.000
    C158    C    0.13850   0.57443   0.65040   1.000
    C159    C    0.63851   0.57443   0.65040   1.000
    C160    C    0.14909   0.54646   0.50483   1.000
    C161    C    0.64909   0.54646   0.50483   1.000
    C162    C    0.29655   0.51117   0.56527   1.000
    C163    C    0.79656   0.51117   0.56527   1.000
    C164    C    0.13862   0.17758   0.41006   1.000
    C165    C    0.63863   0.17758   0.41006   1.000
    C166    C    0.03641   0.15060   0.42557   1.000
    C167    C    0.53641   0.15060   0.42557   1.000
    C168    C    0.09847   0.00000   0.45361   1.000
    C169    C    0.59847   0.00000   0.45361   1.000
    C170    C    0.42092   0.06522   0.48873   1.000
    C171    C    0.92093   0.06522   0.48873   1.000
    C172    C    0.43330   0.32265   0.08970   1.000
    C173    C    0.93330   0.32265   0.08971   1.000
    C174    C    0.32531   0.34946   0.07418   1.000
    C175    C    0.82532   0.34946   0.07418   1.000
    C176    C    0.32778   0.49530   0.04640   1.000
    C177    C    0.82779   0.49530   0.04647   1.000
    C178    C    0.19837   0.43451   0.01100   1.000
    C179    C    0.69838   0.43451   0.01102   1.000
    C180    C    0.34439   0.08984   0.17751   1.000
    C181    C    0.84440   0.08984   0.17751   1.000
    C182    C    0.24983   0.07427   0.15059   1.000
    C183    C    0.74984   0.07427   0.15059   1.000
    C184    C    0.47715   0.41010   0.32252   1.000
    C185    C    0.97716   0.41010   0.32252   1.000
    C186    C    0.36151   0.42557   0.34948   1.000
    C187    C    0.86152   0.42557   0.34948   1.000
    C188    C    0.35093   0.45354   0.49514   1.000
    C189    C    0.85094   0.45354   0.49514   1.000
    C190    C    0.20347   0.48882   0.43470   1.000
    C191    C    0.70348   0.48883   0.43470   1.000
    N192    N    0.47500   0.91900   0.51714   1.000
    N193    N    0.97501   0.91900   0.51714   1.000
    N194    N    0.19264   0.58089   0.98295   1.000
    N195    N    0.69265   0.58089   0.98295   1.000
    N196    N    0.23325   0.98292   0.91901   1.000
    N197    N    0.73326   0.98292   0.91901   1.000
    N198    N    0.18458   0.51716   0.58092   1.000
    N199    N    0.68459   0.51716   0.58092   1.000
    N200    N    0.02502   0.08100   0.48283   1.000
    N201    N    0.52503   0.08100   0.48283   1.000
    N202    N    0.30738   0.41911   0.01702   1.000
    N203    N    0.80738   0.41911   0.01702   1.000
    N204    N    0.26677   0.01707   0.08096   1.000
    N205    N    0.76677   0.01707   0.08096   1.000
    N206    N    0.31543   0.48284   0.41905   1.000
    N207    N    0.81544   0.48284   0.41905   1.000
    O208    O    0.31206   0.83348   0.44373   1.000
    O209    O    0.81207   0.83348   0.44373   1.000
    O210    O    0.42099   0.70436   0.47903   1.000
    O211    O    0.92100   0.70436   0.47903   1.000
    O212    O    0.45001   0.66654   0.05637   1.000
    O213    O    0.95002   0.66654   0.05637   1.000
    O214    O    0.01241   0.79555   0.02103   1.000
    O215    O    0.51241   0.79555   0.02103   1.000
    O216    O    0.03335   0.05627   0.83353   1.000
    O217    O    0.53336   0.05627   0.83353   1.000
    O218    O    0.15953   0.02103   0.70433   1.000
    O219    O    0.65954   0.02103   0.70433   1.000
    O220    O    0.47899   0.44373   0.66658   1.000
    O221    O    0.97900   0.44373   0.66658   1.000
    O222    O    0.02422   0.47895   0.79550   1.000
    O223    O    0.52423   0.47895   0.79550   1.000
    O224    O    0.18796   0.16652   0.55624   1.000
    O225    O    0.68796   0.16652   0.55624   1.000
    O226    O    0.07903   0.29564   0.52094   1.000
    O227    O    0.57904   0.29564   0.52094   1.000
    O228    O    0.05001   0.33346   0.94360   1.000
    O229    O    0.55002   0.33346   0.94360   1.000
    O230    O    0.48761   0.20445   0.97894   1.000
    O231    O    0.98762   0.20445   0.97894   1.000
    O232    O    0.46667   0.94373   0.16644   1.000
    O233    O    0.96668   0.94373   0.16644   1.000
    O234    O    0.34049   0.97897   0.29563   1.000
    O235    O    0.84050   0.97896   0.29563   1.000
    O236    O    0.02103   0.55627   0.33339   1.000
    O237    O    0.52104   0.55627   0.33339   1.000
    O238    O    0.47580   0.52105   0.20446   1.000
    O239    O    0.97581   0.52105   0.20446   1.000
loop_
    _geom_bond_atom_site_label_1
    _geom_bond_atom_site_label_2
    _geom_bond_distance
    _geom_bond_site_symmetry_2
    _ccdc_geom_bond_type
    H31    C147      1.03880  1_554   S
    H30    C146      1.03880  1_554   S
    C84    H110      1.12558      .   S
    C84    N204      1.54169      .   S
    C84    C154      1.45359  1_544   S
    C84    H112      1.09066  1_554   S
    C85    H111      1.12558      .   S
    C85    N205      1.54169      .   S
    C85    C155      1.45359  1_544   S
    C85    H113      1.09053  1_554   S
    H43    C153      1.10991  1_554   S
    H42    C152      1.10991  1_554   S
    C178   N202      1.48497      .   S
    C178   H98       1.11031      .   S
    C178   C144      1.51633  1_554   S
    C178   H100      1.09382  1_554   S
    C179   N203      1.48488      .   S
    C179   H99       1.11004      .   S
    C179   C145      1.51654  1_554   S
    C179   H101      1.09397  1_554   S
    N202   C176      1.48022      .   S
    N202   C174      1.48690      .   S
    N203   C177      1.48071      .   S
    N203   C175      1.48691      .   S
    C176   H94       1.09706      .   S
    C176   H96       1.11097      .   S
    C176   C146      1.51579  1_554   S
    C177   H95       1.09676      .   S
    C177   H97       1.10999      .   S
    C177   C147      1.51654  1_554   S
    H92    C174      1.09959      .   S
    H93    C175      1.09898      .   S
    H115   C87       1.10994      .   S
    H114   C86       1.10994      .   S
    C86    N204      1.48480      .   S
    C86    H116      1.09410  1_545   S
    C86    C152      1.51637  1_544   S
    C87    N205      1.48482      .   S
    C87    H117      1.09326  1_545   S
    C87    C153      1.51636  1_544   S
    C175   C173      1.52612      .   S
    C175   H91       1.10681      .   S
    C174   C172      1.52606      .   S
    C174   H90       1.10680      .   S
    N204   C182      1.48693      .   S
    N205   C183      1.48693      .   S
    C172   H88       1.09911      .   S
    C172   H82       1.09962      .   S
    C173   H89       1.09902      .   S
    C173   H83       1.09951      .   S
    H104   C180      1.09905      .   S
    H105   C181      1.09906      .   S
    H106   C182      1.10678      .   S
    H107   C183      1.10677      .   S
    C182   C180      1.52619      .   S
    C182   H108      1.09900      .   S
    C183   C181      1.52620      .   S
    C183   H109      1.09899      .   S
    C181   H103      1.09944      .   S
    C180   H102      1.09944      .   S
    H118   C184      1.09941      .   S
    H119   C185      1.09943  1_455   S
    H125   C187      1.09894      .   S
    H124   C186      1.09894      .   S
    C185   C187      1.52589      .   S
    C185   H120      1.09883  1_655   S
    C184   C186      1.52589      .   S
    C184   H121      1.09896      .   S
    C187   H123      1.10654      .   S
    C187   N207      1.48689      .   S
    C186   H122      1.10655      .   S
    C186   N206      1.48688      .   S
    H66    C164      1.10001      .   S
    H67    C165      1.10003      .   S
    H71    C167      1.10670      .   S
    H70    C166      1.10670      .   S
    H132   C190      1.09423      .   S
    H133   C191      1.09422      .   S
    H77    C169      1.09018  1_565   S
    H76    C168      1.09018  1_565   S
    H68    C164      1.09902      .   S
    H69    C165      1.09901      .   S
    C165   C167      1.52597      .   S
    C164   C166      1.52597      .   S
    N206   C190      1.48472      .   S
    N206   C188      1.48076      .   S
    N207   C191      1.48474      .   S
    N207   C189      1.48076      .   S
    C167   H72       1.09895      .   S
    C167   N201      1.48691      .   S
    C166   H73       1.09882  1_455   S
    C166   N200      1.48692      .   S
    H78    C170      1.10989      .   S
    H79    C171      1.10989      .   S
    C191   H131      1.10993      .   S
    C191   C161      1.51632      .   S
    C190   H130      1.10994      .   S
    C190   C160      1.51633      .   S
    H74    C168      1.12622      .   S
    H75    C169      1.12620      .   S
    C169   N201      1.54234      .   S
    C169   C64       1.45262  1_545   S
    C168   N200      1.54234      .   S
    C168   C140      1.45262  1_545   S
    N201   C170      1.48475      .   S
    N200   C171      1.48454  1_455   S
    H126   C188      1.09676      .   S
    H127   C189      1.09677      .   S
    C171   H81       1.09415      .   S
    C171   C139      1.51640  1_545   S
    C170   H80       1.09415      .   S
    C170   C138      1.51640  1_545   S
    H15    C64       1.09414      .   S
    H14    C140      1.09414      .   S
    H59    C161      1.10993      .   S
    H58    C160      1.10992      .   S
    C189   H129      1.10992      .   S
    C189   C163      1.51633      .   S
    C188   H128      1.10993      .   S
    C188   C162      1.51633      .   S
    C160   H56       1.09678      .   S
    C160   N198      1.48076      .   S
    C161   H57       1.09676      .   S
    C161   N199      1.48076      .   S
    C140   N193      1.48453  1_455   S
    C140   H12       1.10989      .   S
    C64    N192      1.48476      .   S
    C64    H13       1.10989      .   S
    N193   C139      1.48071      .   S
    N193   C137      1.48693      .   S
    N192   C138      1.48071      .   S
    N192   C136      1.48693      .   S
    C138   H8        1.09673      .   S
    C138   H10       1.10999  1_565   S
    C139   H9        1.09673      .   S
    C139   H11       1.10999  1_565   S
    H6     C137      1.09884  1_455   S
    H7     C136      1.09894      .   S
    H60    C162      1.10993      .   S
    H61    C163      1.10993      .   S
    C163   N199      1.48474      .   S
    C163   H63       1.09407      .   S
    C162   N198      1.48473      .   S
    C162   H62       1.09408      .   S
    C137   C135      1.52597      .   S
    C137   H5        1.10670      .   S
    C136   C134      1.52596      .   S
    C136   H4        1.10670      .   S
    N199   C159      1.48580      .   S
    N198   C158      1.48581      .   S
    C134   H2        1.09901      .   S
    C134   H0        1.09941      .   S
    C135   H3        1.09902      .   S
    C135   H1        1.09940      .   S
    H50    C157      1.09909      .   S
    H51    C156      1.09897  1_655   S
    H52    C158      1.10654      .   S
    H53    C159      1.10654      .   S
    C158   C156      1.52602      .   S
    C158   H54       1.09994      .   S
    C159   C157      1.52604      .   S
    C159   H55       1.10023      .   S
    C156   H48       1.09942  1_455   S
    C157   H49       1.09942      .   S
    H33    C149      1.09945      .   S
    H32    C148      1.09945      .   S
    H39    C151      1.09813      .   S
    H38    C150      1.09813      .   S
    C149   C151      1.52556      .   S
    C149   H35       1.09865      .   S
    C148   C150      1.52556      .   S
    C148   H34       1.09905      .   S
    C150   H36       1.10720      .   S
    C150   N196      1.48798      .   S
    C151   H37       1.10721      .   S
    C151   N197      1.48797      .   S
    H16    C65       1.09939      .   S
    H17    C141      1.09939      .   S
    H21    C143      1.10733      .   S
    H20    C142      1.10680      .   S
    H46    C154      1.03960  1_545   S
    H47    C155      1.03960  1_545   S
    H27    C145      1.10986      .   S
    H26    C144      1.10986      .   S
    H19    C141      1.09956      .   S
    H18    C65       1.09896      .   S
    C65    C142      1.52618      .   S
    C141   C143      1.52618      .   S
    N196   C154      1.48481      .   S
    N196   C152      1.48099      .   S
    N197   C155      1.48480      .   S
    N197   C153      1.48100      .   S
    C142   H22       1.09890      .   S
    C142   N194      1.48692      .   S
    C143   H23       1.09890      .   S
    C143   N195      1.48691      .   S
    H28    C146      1.10991      .   S
    H29    C147      1.10990      .   S
    C155   H45       1.10989      .   S
    C154   H44       1.10989      .   S
    H25    C145      1.09681      .   S
    H24    C144      1.09673      .   S
    C145   N195      1.48077      .   S
    C144   N194      1.48078      .   S
    N194   C146      1.48482      .   S
    N195   C147      1.48484      .   S
    H41    C153      1.09685      .   S
    H40    C152      1.09680      .   S
