# CIF file generated by openbabel 2.4.90, see http://openbabel.sf.net
data_I
_chemical_name_common ''
_cell_length_a 13.69
_cell_length_b 16.701
_cell_length_c 16.701
_cell_angle_alpha 87.613
_cell_angle_beta 78.271
_cell_angle_gamma 78.214
_space_group_name_H-M_alt 'P 1'
_space_group_name_Hall 'P 1'
loop_
    _symmetry_equiv_pos_as_xyz
    x,y,z
loop_
    _atom_site_label
    _atom_site_type_symbol
    _atom_site_fract_x
    _atom_site_fract_y
    _atom_site_fract_z
    _atom_site_occupancy
    Ag0     Ag   0.95660   0.89289   0.38036   1.000
    Ag1     Ag   0.09267   0.60666   0.11965   1.000
    Ag2     Ag   0.59268   0.60666   0.11965   1.000
    Ag3     Ag   0.14647   0.11970   0.89290   1.000
    Ag4     Ag   0.64648   0.11970   0.89290   1.000
    Ag5     Ag   0.15294   0.38039   0.60681   1.000
    Ag6     Ag   0.65295   0.38039   0.60681   1.000
    Ag7     Ag   0.04342   0.10711   0.61961   1.000
    Ag8     Ag   0.54343   0.10711   0.61961   1.000
    Ag9     Ag   0.40735   0.39334   0.88031   1.000
    Ag10    Ag   0.90736   0.39334   0.88031   1.000
    Ag11    Ag   0.35355   0.88030   0.10702   1.000
    Ag12    Ag   0.85356   0.88030   0.10702   1.000
    Ag13    Ag   0.34707   0.61961   0.39316   1.000
    Ag14    Ag   0.84708   0.61961   0.39316   1.000
    Ag15    Ag   0.45659   0.89289   0.38036   1.000
