# CIF file generated by openbabel 2.4.90, see http://openbabel.sf.net
data_I
_chemical_name_common ''
_cell_length_a 13.69
_cell_length_b 16.701
_cell_length_c 16.701
_cell_angle_alpha 87.613
_cell_angle_beta 78.271
_cell_angle_gamma 78.214
_space_group_name_H-M_alt 'P 1'
_space_group_name_Hall 'P 1'
loop_
    _symmetry_equiv_pos_as_xyz
    x,y,z
loop_
    _atom_site_label
    _atom_site_type_symbol
    _atom_site_fract_x
    _atom_site_fract_y
    _atom_site_fract_z
    _atom_site_occupancy
    N0      N    0.54678   0.97335   0.75537   1.000
    N1      N    0.95326   0.02665   0.24459   1.000
    O2      O    0.66667   0.98089   0.88787   1.000
    N3      N    0.78435   0.75524   0.52660   1.000
    N4      N    0.21568   0.24476   0.47337   1.000
    O5      O    0.09241   0.11197   0.48106   1.000
    N6      N    0.08740   0.47339   0.25511   1.000
    N7      N    0.41261   0.52661   0.74486   1.000
    O8      O    0.60185   0.51892   0.61206   1.000
    N9      N    0.04677   0.97335   0.75538   1.000
    N10     N    0.45325   0.02665   0.24459   1.000
    O11     O    0.33336   0.01874   0.11190   1.000
    N12     N    0.42474   0.74471   0.97338   1.000
    N13     N    0.07528   0.25529   0.02659   1.000
    O14     O    0.61074   0.61202   0.98090   1.000
    N15     N    0.31260   0.25002   0.74992   1.000
    N16     N    0.81261   0.25002   0.74992   1.000
    N17     N    0.58741   0.47339   0.25511   1.000
    N18     N    0.91262   0.52661   0.74486   1.000
    O19     O    0.39818   0.48108   0.38789   1.000
    N20     N    0.92475   0.74471   0.97338   1.000
    N21     N    0.57529   0.25529   0.02659   1.000
    O22     O    0.11073   0.61202   0.98090   1.000
    N23     N    0.28434   0.75524   0.52660   1.000
    N24     N    0.71569   0.24476   0.47337   1.000
    O25     O    0.59242   0.11197   0.48106   1.000
    N26     N    0.18742   0.74997   0.25000   1.000
    N27     N    0.68742   0.74997   0.25000   1.000
    Zr28    Zr   0.64648   0.11970   0.89290   1.000
    O29     O    0.58690   0.15148   0.92517   1.000
    O30     O    0.60406   0.09591   0.87064   1.000
    O31     O    0.70071   0.16234   0.84629   1.000
    O32     O    0.68321   0.07258   0.92289   1.000
    Zr33    Zr   0.45659   0.89289   0.38036   1.000
    O34     O    0.41305   0.92517   0.34859   1.000
    O35     O    0.53198   0.84630   0.33770   1.000
    Zr36    Zr   0.40735   0.39334   0.88031   1.000
    O37     O    0.45118   0.42544   0.84851   1.000
    O38     O    0.37640   0.34660   0.83765   1.000
    Zr39    Zr   0.95660   0.89289   0.38036   1.000
    O40     O    0.91306   0.92517   0.34859   1.000
    O41     O    0.03198   0.84630   0.33770   1.000
    Zr42    Zr   0.14647   0.11970   0.89290   1.000
    O43     O    0.08690   0.15148   0.92517   1.000
    O44     O    0.20070   0.16234   0.84629   1.000
    Zr45    Zr   0.84708   0.61961   0.39316   1.000
    O46     O    0.87480   0.65139   0.42536   1.000
    O47     O    0.79490   0.66226   0.34648   1.000
    Zr48    Zr   0.15294   0.38039   0.60681   1.000
    O49     O    0.12523   0.34861   0.57461   1.000
    O50     O    0.20513   0.33773   0.65348   1.000
    Zr51    Zr   0.65295   0.38039   0.60681   1.000
    O52     O    0.58772   0.40414   0.62922   1.000
    O53     O    0.68117   0.42739   0.57687   1.000
    O54     O    0.62523   0.34861   0.57461   1.000
    O55     O    0.70514   0.33773   0.65348   1.000
    Zr56    Zr   0.59268   0.60666   0.11965   1.000
    O57     O    0.64451   0.57677   0.07255   1.000
    O58     O    0.54885   0.57455   0.15145   1.000
    O59     O    0.53918   0.62911   0.09592   1.000
    O60     O    0.62362   0.65340   0.16230   1.000
    Zr61    Zr   0.90736   0.39334   0.88031   1.000
    O62     O    0.95118   0.42544   0.84851   1.000
    O63     O    0.87641   0.34660   0.83765   1.000
    Zr64    Zr   0.85356   0.88030   0.10702   1.000
    O65     O    0.91312   0.84852   0.07477   1.000
    O66     O    0.79933   0.83765   0.15364   1.000
    Zr67    Zr   0.54343   0.10711   0.61961   1.000
    O68     O    0.59763   0.12939   0.59585   1.000
    O69     O    0.58697   0.07483   0.65138   1.000
    O70     O    0.53028   0.07702   0.57261   1.000
    O71     O    0.46804   0.15370   0.66226   1.000
    Zr72    Zr   0.34707   0.61961   0.39316   1.000
    O73     O    0.41231   0.59586   0.37075   1.000
    O74     O    0.37479   0.65139   0.42536   1.000
    O75     O    0.31885   0.57261   0.42310   1.000
    O76     O    0.29489   0.66226   0.34648   1.000
    Zr77    Zr   0.04342   0.10711   0.61961   1.000
    O78     O    0.09762   0.12939   0.59585   1.000
    O79     O    0.96804   0.15370   0.66226   1.000
    O80     O    0.08696   0.07483   0.65138   1.000
    O81     O    0.03027   0.07702   0.57261   1.000
    Zr82    Zr   0.35355   0.88030   0.10702   1.000
    O83     O    0.39597   0.90408   0.12930   1.000
    O84     O    0.41312   0.84852   0.07477   1.000
    O85     O    0.31681   0.92723   0.07696   1.000
    O86     O    0.29932   0.83765   0.15364   1.000
    Zr87    Zr   0.09267   0.60666   0.11965   1.000
    O88     O    0.04885   0.57455   0.15145   1.000
    O89     O    0.03917   0.62911   0.09592   1.000
    O90     O    0.12362   0.65340   0.16230   1.000
    O91     O    0.14450   0.57677   0.07255   1.000
    O92     O    0.93608   0.89674   0.41574   1.000
    O93     O    0.40818   0.39706   0.91563   1.000
    O94     O    0.14363   0.08425   0.89676   1.000
    O95     O    0.86559   0.58423   0.39692   1.000
    O96     O    0.43607   0.89674   0.41574   1.000
    O97     O    0.13444   0.41576   0.60304   1.000
    O98     O    0.90819   0.39706   0.91563   1.000
    O99     O    0.85640   0.91565   0.10313   1.000
loop_
    _geom_bond_atom_site_label_1
    _geom_bond_atom_site_label_2
    _geom_bond_distance
    _geom_bond_site_symmetry_2
    _ccdc_geom_bond_type
    N1     O2        7.91054  1_544   S
    N0     O2        3.03168      .   S
    N3     O5        7.90207  1_665   S
    N4     O5        3.03303      .   S
    N6     O8        7.90609  1_455   S
    N7     O8        3.03280      .   S
    N9     O11       7.90618  1_566   S
    N10    O11       3.03542      .   S
    N13    O14       7.91437  1_454   S
    N12    O14       3.03517      .   S
    N18    O19       7.90609  1_655   S
    N17    O19       3.03280      .   S
    N21    O22       7.91446  1_554   S
    N20    O22       3.03508  1_655   S
    N23    O25       7.90217  1_565   S
    N24    O25       3.03307      .   S
    Zr28   O29       0.95161      .   S
    N21    O29       2.43359  1_554   S
    Zr28   O30       0.90977      .   S
    N0     O30       3.17943  1_565   S
    Zr28   O31       1.26458      .   S
    N16    O31       2.60752      .   S
    Zr28   O32       1.01528      .   S
    N1     O32       7.04949  1_554   S
    Zr33   O34       0.94921      .   S
    N10    O34       2.43706  1_545   S
    Zr33   O35       1.26389      .   S
    N27    O35       2.60616      .   S
    Zr36   O37       0.95274      .   S
    N7     O37       2.42761      .   S
    Zr36   O38       1.26511      .   S
    N15    O38       2.60842      .   S
    Zr39   O40       0.94921      .   S
    N1     O40       2.43706  1_545   S
    Zr39   O41       1.26385  1_655   S
    N26    O41       2.60609      .   S
    Zr42   O43       0.95155      .   S
    N13    O43       2.43357  1_554   S
    Zr42   O44       1.26458      .   S
    N15    O44       2.60753      .   S
    Zr45   O46       0.95075      .   S
    N3     O46       2.43224      .   S
    Zr45   O47       1.26407      .   S
    N27    O47       2.60647      .   S
    Zr48   O49       0.95075      .   S
    N4     O49       2.43230      .   S
    Zr48   O50       1.26394      .   S
    N15    O50       2.60606      .   S
    Zr51   O52       0.90929      .   S
    N7     O52       3.17849      .   S
    Zr51   O53       1.01394      .   S
    N6     O53       7.04605  1_455   S
    Zr51   O54       0.95075      .   S
    N24    O54       2.43230      .   S
    Zr51   O55       1.26394      .   S
    N16    O55       2.60606      .   S
    Zr56   O57       1.01611      .   S
    N13    O57       7.05422  1_455   S
    Zr56   O58       0.95274      .   S
    N17    O58       2.42762      .   S
    Zr56   O59       0.90971      .   S
    N12    O59       3.17946  1_556   S
    Zr56   O60       1.26502      .   S
    N27    O60       2.60810      .   S
    Zr61   O62       0.95269      .   S
    N18    O62       2.42759      .   S
    Zr61   O63       1.26511      .   S
    N16    O63       2.60842      .   S
    Zr64   O65       0.95143      .   S
    N20    O65       2.43326  1_556   S
    Zr64   O66       1.26464      .   S
    N27    O66       2.60750      .   S
    Zr67   O68       0.90954      .   S
    N24    O68       3.17933      .   S
    Zr67   O69       0.94916      .   S
    N0     O69       2.43688  1_565   S
    Zr67   O70       1.01417      .   S
    N23    O70       7.04231  1_565   S
    Zr67   O71       1.26382      .   S
    N15    O71       2.60593      .   S
    Zr72   O73       0.90928      .   S
    N17    O73       3.17857      .   S
    Zr72   O74       0.95075      .   S
    N23    O74       2.43225      .   S
    Zr72   O75       1.01393      .   S
    N18    O75       7.04597  1_655   S
    Zr72   O76       1.26408      .   S
    N26    O76       2.60648      .   S
    Zr77   O78       0.90954      .   S
    N4     O78       3.17934      .   S
    Zr77   O79       1.26376  1_455   S
    N16    O79       2.60585      .   S
    Zr77   O80       0.94917      .   S
    N9     O80       2.43709  1_565   S
    Zr77   O81       1.01415      .   S
    N3     O81       7.04219  1_665   S
    Zr82   O83       0.90994      .   S
    N10    O83       3.17955  1_545   S
    Zr82   O84       0.95148      .   S
    N12    O84       2.43329  1_556   S
    Zr82   O85       1.01397      .   S
    N9     O85       7.04754  1_556   S
    Zr82   O86       1.26464      .   S
    N26    O86       2.60750      .   S
    Zr87   O88       0.95269      .   S
    N6     O88       2.42760      .   S
    Zr87   O89       0.90964      .   S
    N20    O89       3.17939  1_656   S
    Zr87   O90       1.26502      .   S
    N26    O90       2.60809      .   S
    Zr87   O91       1.01612      .   S
    N21    O91       7.05436      .   S
    Zr39   O92       0.60048      .   S
    N3     O92       3.66124      .   S
    Zr36   O93       0.59837      .   S
    N21    O93       3.66312  1_554   S
    Zr42   O94       0.60121      .   S
    N9     O94       3.66112  1_565   S
    Zr45   O95       0.59951      .   S
    N6     O95       3.66096  1_455   S
    Zr33   O96       0.60047      .   S
    N23    O96       3.66125      .   S
    Zr48   O97       0.59951      .   S
    N18    O97       3.66089  1_655   S
    Zr61   O98       0.59837      .   S
    N13    O98       3.66301  1_454   S
    Zr64   O99       0.59968      .   S
    N1     O99       3.66306  1_545   S
