# CIF file generated by openbabel 2.4.90, see http://openbabel.sf.net
data_I
_chemical_name_common ''
_cell_length_a 13.69
_cell_length_b 16.701
_cell_length_c 16.701
_cell_angle_alpha 87.613
_cell_angle_beta 78.271
_cell_angle_gamma 78.214
_space_group_name_H-M_alt 'P 1'
_space_group_name_Hall 'P 1'
loop_
    _symmetry_equiv_pos_as_xyz
    x,y,z
loop_
    _atom_site_label
    _atom_site_type_symbol
    _atom_site_fract_x
    _atom_site_fract_y
    _atom_site_fract_z
    _atom_site_occupancy
    Zr0     Zr   0.45659   0.89289   0.38036   1.000
    Zr1     Zr   0.95660   0.89289   0.38036   1.000
    Zr2     Zr   0.09267   0.60666   0.11965   1.000
    Zr3     Zr   0.59268   0.60666   0.11965   1.000
    Zr4     Zr   0.14647   0.11970   0.89290   1.000
    Zr5     Zr   0.64648   0.11970   0.89290   1.000
    Zr6     Zr   0.15294   0.38039   0.60681   1.000
    Zr7     Zr   0.65295   0.38039   0.60681   1.000
    Zr8     Zr   0.04342   0.10711   0.61961   1.000
    Zr9     Zr   0.54343   0.10711   0.61961   1.000
    Zr10    Zr   0.40735   0.39334   0.88031   1.000
    Zr11    Zr   0.90736   0.39334   0.88031   1.000
    Zr12    Zr   0.35355   0.88030   0.10702   1.000
    Zr13    Zr   0.85356   0.88030   0.10702   1.000
    Zr14    Zr   0.34707   0.61961   0.39316   1.000
    Zr15    Zr   0.84708   0.61961   0.39316   1.000
    N16     N    0.54678   0.97335   0.75537   1.000
    N17     N    0.95326   0.02665   0.24459   1.000
    O18     O    0.93840   0.92787   0.15158   1.000
    O19     O    0.56164   0.07213   0.84837   1.000
    O20     O    0.86952   0.95745   0.31681   1.000
    O21     O    0.63051   0.04255   0.68315   1.000
    O22     O    0.71994   0.02547   0.95287   1.000
    O23     O    0.78009   0.97415   0.04689   1.000
    O24     O    0.66667   0.98089   0.88787   1.000
    N25     N    0.78435   0.75524   0.52660   1.000
    N26     N    0.21568   0.24476   0.47337   1.000
    O27     O    0.09751   0.31683   0.54241   1.000
    O28     O    0.84820   0.84833   0.42789   1.000
    O29     O    0.15182   0.15167   0.57208   1.000
    O30     O    0.90252   0.68317   0.45756   1.000
    O31     O    0.98291   0.95288   0.47437   1.000
    O32     O    0.01712   0.04693   0.52560   1.000
    O33     O    0.09241   0.11197   0.48106   1.000
    N34     N    0.08740   0.47339   0.25511   1.000
    N35     N    0.41261   0.52661   0.74486   1.000
    O36     O    0.49501   0.45755   0.81670   1.000
    O37     O    0.00502   0.54245   0.18326   1.000
    O38     O    0.97754   0.57210   0.34833   1.000
    O39     O    0.52248   0.42789   0.65164   1.000
    O40     O    0.60185   0.51892   0.61206   1.000
    O41     O    0.79064   0.52561   0.45304   1.000
    O42     O    0.70939   0.47439   0.54692   1.000
    N43     N    0.04677   0.97335   0.75538   1.000
    N44     N    0.45325   0.02665   0.24459   1.000
    O45     O    0.36952   0.95745   0.31681   1.000
    O46     O    0.06163   0.07213   0.84837   1.000
    O47     O    0.43839   0.92787   0.15158   1.000
    O48     O    0.13050   0.04255   0.68315   1.000
    O49     O    0.21993   0.02547   0.95287   1.000
    O50     O    0.33336   0.01874   0.11190   1.000
    O51     O    0.28008   0.97415   0.04689   1.000
    N52     N    0.42474   0.74471   0.97338   1.000
    N53     N    0.07528   0.25529   0.02659   1.000
    O54     O    0.01434   0.34843   0.92778   1.000
    O55     O    0.02733   0.18326   0.95743   1.000
    O56     O    0.47270   0.81674   0.04253   1.000
    O57     O    0.48568   0.65157   0.07219   1.000
    O58     O    0.69634   0.54689   0.02545   1.000
    O59     O    0.80369   0.45311   0.97413   1.000
    O60     O    0.61074   0.61202   0.98090   1.000
    N61     N    0.31260   0.25002   0.74992   1.000
    O62     O    0.39265   0.20029   0.70491   1.000
    O63     O    0.25493   0.20498   0.79968   1.000
    O64     O    0.25731   0.29508   0.70014   1.000
    O65     O    0.34546   0.29986   0.79500   1.000
    N66     N    0.81261   0.25002   0.74992   1.000
    O67     O    0.75494   0.20498   0.79968   1.000
    O68     O    0.75732   0.29508   0.70014   1.000
    O69     O    0.89266   0.20029   0.70491   1.000
    O70     O    0.84546   0.29986   0.79500   1.000
    N71     N    0.58741   0.47339   0.25511   1.000
    N72     N    0.91262   0.52661   0.74486   1.000
    O73     O    0.50502   0.54245   0.18326   1.000
    O74     O    0.47755   0.57210   0.34833   1.000
    O75     O    0.99500   0.45755   0.81670   1.000
    O76     O    0.02248   0.42789   0.65164   1.000
    O77     O    0.20939   0.47439   0.54692   1.000
    O78     O    0.29063   0.52561   0.45304   1.000
    O79     O    0.39818   0.48108   0.38789   1.000
    N80     N    0.92475   0.74471   0.97338   1.000
    N81     N    0.57529   0.25529   0.02659   1.000
    O82     O    0.52733   0.18326   0.95743   1.000
    O83     O    0.51435   0.34843   0.92778   1.000
    O84     O    0.98568   0.65157   0.07219   1.000
    O85     O    0.97269   0.81673   0.04253   1.000
    O86     O    0.30369   0.45311   0.97413   1.000
    O87     O    0.19633   0.54688   0.02545   1.000
    O88     O    0.11073   0.61202   0.98090   1.000
    N89     N    0.28434   0.75524   0.52660   1.000
    N90     N    0.71569   0.24476   0.47337   1.000
    O91     O    0.65183   0.15167   0.57208   1.000
    O92     O    0.34819   0.84833   0.42789   1.000
    O93     O    0.40251   0.68317   0.45756   1.000
    O94     O    0.59752   0.31683   0.54241   1.000
    O95     O    0.48290   0.95288   0.47437   1.000
    O96     O    0.51712   0.04693   0.52560   1.000
    O97     O    0.59242   0.11197   0.48106   1.000
    N98     N    0.18742   0.74997   0.25000   1.000
    O99     O    0.10737   0.79971   0.29504   1.000
    O100    O    0.24509   0.79501   0.20026   1.000
    O101    O    0.24270   0.70492   0.29981   1.000
    O102    O    0.15456   0.70014   0.20495   1.000
    N103    N    0.68742   0.74997   0.25000   1.000
    O104    O    0.74510   0.79501   0.20026   1.000
    O105    O    0.74271   0.70492   0.29981   1.000
    O106    O    0.65457   0.70014   0.20495   1.000
    O107    O    0.60737   0.79971   0.29504   1.000
loop_
    _geom_bond_atom_site_label_1
    _geom_bond_atom_site_label_2
    _geom_bond_distance
    _geom_bond_site_symmetry_2
    _ccdc_geom_bond_type
    N17    O18       2.37784  1_545   S
    Zr13   O18       1.81989      .   S
    N16    O19       2.37793  1_565   S
    Zr5    O19       1.81954      .   S
    N17    O20       1.99192  1_545   S
    Zr1    O20       1.89842      .   S
    N16    O21       1.99181  1_565   S
    Zr9    O21       1.89833      .   S
    N17    O22       6.34809  1_554   S
    Zr5    O22       2.03056      .   S
    N17    O23       4.64351  1_545   S
    Zr13   O23       2.02795      .   S
    N17    O24       7.91054  1_544   S
    N16    O24       3.03168      .   S
    N26    O27       1.98925      .   S
    Zr6    O27       1.90150      .   S
    N25    O28       2.37795      .   S
    Zr1    O28       1.81908      .   S
    N26    O29       2.37799      .   S
    Zr8    O29       1.81908      .   S
    N25    O30       1.98921      .   S
    Zr15   O30       1.90150      .   S
    N25    O31       4.63748      .   S
    Zr1    O31       2.02649      .   S
    N25    O32       6.34035  1_665   S
    Zr8    O32       2.02830      .   S
    N25    O33       7.90207  1_665   S
    N26    O33       3.03303      .   S
    N35    O36       1.98642      .   S
    Zr10   O36       1.90548      .   S
    N34    O37       1.98633      .   S
    Zr2    O37       1.90539      .   S
    N34    O38       2.37758  1_455   S
    Zr15   O38       1.81844      .   S
    N35    O39       2.37752      .   S
    Zr7    O39       1.81857      .   S
    N34    O40       7.90609  1_455   S
    N35    O40       3.03280      .   S
    N34    O41       4.63969  1_455   S
    Zr15   O41       2.02788      .   S
    N34    O42       6.34434  1_455   S
    Zr7    O42       2.02788      .   S
    N44    O45       1.99191  1_545   S
    Zr0    O45       1.89842      .   S
    N43    O46       2.37769  1_565   S
    Zr4    O46       1.81954      .   S
    N44    O47       2.37784  1_545   S
    Zr12   O47       1.81989      .   S
    N43    O48       1.99196  1_565   S
    Zr8    O48       1.89833      .   S
    N43    O49       4.63865  1_565   S
    Zr4    O49       2.03057      .   S
    N43    O50       7.90618  1_566   S
    N44    O50       3.03542      .   S
    N43    O51       6.34423  1_556   S
    Zr12   O51       2.02793      .   S
    N53    O54       2.37795  1_554   S
    Zr11   O54       1.81935  1_655   S
    N53    O55       1.98954  1_554   S
    Zr4    O55       1.90310      .   S
    N52    O56       1.98955  1_556   S
    Zr12   O56       1.90296      .   S
    N52    O57       2.37800  1_556   S
    Zr3    O57       1.81941      .   S
    N53    O58       6.35144  1_455   S
    Zr3    O58       2.03223      .   S
    N53    O59       4.64454  1_454   S
    Zr11   O59       2.02808      .   S
    N53    O60       7.91437  1_454   S
    N52    O60       3.03517      .   S
    N61    O62       1.34212      .   S
    Zr9    O62       2.52763      .   S
    N61    O63       1.34295      .   S
    Zr4    O63       2.52916      .   S
    N61    O64       1.34213      .   S
    Zr6    O64       2.52788      .   S
    N61    O65       1.34331      .   S
    Zr10   O65       2.53022      .   S
    N66    O67       1.34295      .   S
    Zr5    O67       2.52915      .   S
    N66    O68       1.34213      .   S
    Zr7    O68       2.52788      .   S
    N66    O69       1.34209      .   S
    Zr8    O69       2.52753  1_455   S
    N66    O70       1.34331      .   S
    Zr11   O70       2.53022      .   S
    N71    O73       1.98642      .   S
    Zr3    O73       1.90549      .   S
    N71    O74       2.37761      .   S
    Zr14   O74       1.81856      .   S
    N72    O75       1.98632      .   S
    Zr11   O75       1.90537      .   S
    N72    O76       2.37749  1_655   S
    Zr6    O76       1.81843      .   S
    N72    O77       4.63964  1_655   S
    Zr6    O77       2.02791      .   S
    N72    O78       6.34429  1_655   S
    Zr14   O78       2.02786      .   S
    N72    O79       7.90609  1_655   S
    N71    O79       3.03280      .   S
    N81    O82       1.98963  1_554   S
    Zr5    O82       1.90321      .   S
    N81    O83       2.37797  1_554   S
    Zr10   O83       1.81949      .   S
    N80    O84       2.37798  1_556   S
    Zr2    O84       1.81928  1_455   S
    N80    O85       1.98945  1_556   S
    Zr13   O85       1.90285      .   S
    N81    O86       4.64468  1_554   S
    Zr10   O86       2.02806      .   S
    N81    O87       6.35158      .   S
    Zr2    O87       2.03224      .   S
    N81    O88       7.91446  1_554   S
    N80    O88       3.03508  1_655   S
    N90    O91       2.37799      .   S
    Zr9    O91       1.81907      .   S
    N89    O92       2.37794      .   S
    Zr0    O92       1.81908      .   S
    N89    O93       1.98922      .   S
    Zr14   O93       1.90149      .   S
    N90    O94       1.98925      .   S
    Zr7    O94       1.90150      .   S
    N89    O95       4.63751      .   S
    Zr0    O95       2.02651      .   S
    N89    O96       6.34045  1_565   S
    Zr9    O96       2.02833      .   S
    N89    O97       7.90217  1_565   S
    N90    O97       3.03307      .   S
    N98    O99       1.34225      .   S
    Zr1    O99       2.52769  1_655   S
    N98    O100      1.34287      .   S
    Zr12   O100      2.52928      .   S
    N98    O101      1.34241      .   S
    Zr14   O101      2.52815      .   S
    N98    O102      1.34308      .   S
    Zr2    O102      2.53004      .   S
    N103   O104      1.34287      .   S
    Zr13   O104      2.52927      .   S
    N103   O105      1.34240      .   S
    Zr15   O105      2.52815      .   S
    N103   O106      1.34309      .   S
    Zr3    O106      2.53004      .   S
    N103   O107      1.34228      .   S
    Zr0    O107      2.52778      .   S
