# CIF file generated by openbabel 2.4.90, see http://openbabel.sf.net
data_I
_chemical_name_common ''
_cell_length_a 20.196
_cell_length_b 23.101
_cell_length_c 14.88
_cell_angle_alpha 91.161
_cell_angle_beta 90
_cell_angle_gamma 89.958
_space_group_name_H-M_alt 'P 1'
_space_group_name_Hall 'P 1'
loop_
    _symmetry_equiv_pos_as_xyz
    x,y,z
loop_
    _atom_site_label
    _atom_site_type_symbol
    _atom_site_fract_x
    _atom_site_fract_y
    _atom_site_fract_z
    _atom_site_occupancy
    Zn0     Zn   0.46400   0.87747   0.12960   1.000
    Zn1     Zn   0.96400   0.37747   0.12960   1.000
    Zn2     Zn   0.96400   0.87747   0.12960   1.000
    Zn3     Zn   0.05862   0.37023   0.30800   1.000
    Zn4     Zn   0.05862   0.87023   0.30800   1.000
    Zn5     Zn   0.55862   0.37023   0.30800   1.000
    Zn6     Zn   0.55863   0.87023   0.30800   1.000
    Zn7     Zn   0.21399   0.37255   0.37035   1.000
    Zn8     Zn   0.21399   0.87254   0.37035   1.000
    Zn9     Zn   0.71399   0.37255   0.37035   1.000
    Zn10    Zn   0.71400   0.87254   0.37035   1.000
    Zn11    Zn   0.30861   0.37979   0.19126   1.000
    Zn12    Zn   0.30862   0.87979   0.19126   1.000
    Zn13    Zn   0.80862   0.37979   0.19126   1.000
    Zn14    Zn   0.80862   0.87979   0.19126   1.000
    Zn15    Zn   0.03602   0.12252   0.87035   1.000
    Zn16    Zn   0.03602   0.62252   0.87035   1.000
    Zn17    Zn   0.53602   0.12252   0.87035   1.000
    Zn18    Zn   0.53603   0.62252   0.87035   1.000
    Zn19    Zn   0.44139   0.12976   0.69128   1.000
    Zn20    Zn   0.44139   0.62976   0.69128   1.000
    Zn21    Zn   0.94139   0.12976   0.69128   1.000
    Zn22    Zn   0.94140   0.62976   0.69128   1.000
    Zn23    Zn   0.28602   0.12745   0.62962   1.000
    Zn24    Zn   0.28603   0.62744   0.62962   1.000
    Zn25    Zn   0.78603   0.12745   0.62962   1.000
    Zn26    Zn   0.78603   0.62744   0.62962   1.000
    Zn27    Zn   0.19139   0.12020   0.80871   1.000
    Zn28    Zn   0.19140   0.62020   0.80871   1.000
    Zn29    Zn   0.69140   0.12020   0.80871   1.000
    Zn30    Zn   0.69140   0.62020   0.80871   1.000
    Zn31    Zn   0.00000   0.25000   0.00000   1.000
    Zn32    Zn   0.46399   0.37747   0.12960   1.000
    Zn33    Zn   0.00001   0.74999   0.00000   1.000
    Zn34    Zn   0.50001   0.25000   0.00000   1.000
    Zn35    Zn   0.50001   0.74999   0.00000   1.000
    Zn36    Zn   0.25000   1.00000   0.49999   1.000
    Zn37    Zn   0.25001   0.49999   0.49999   1.000
    Zn38    Zn   0.75001   1.00000   0.49999   1.000
    Zn39    Zn   0.75001   0.49999   0.49999   1.000
    Zn40    Zn   0.00000   0.00000   0.00000   1.000
    Zn41    Zn   0.00000   0.50000   0.00000   1.000
    Zn42    Zn   0.50000   0.00000   0.00000   1.000
    Zn43    Zn   0.50001   0.50000   0.00000   1.000
    Zn44    Zn   0.25000   0.25000   0.49999   1.000
    Zn45    Zn   0.25001   0.74999   0.49999   1.000
    Zn46    Zn   0.75001   0.25000   0.49999   1.000
    Zn47    Zn   0.75001   0.74999   0.49999   1.000
    H48     H    0.37873   0.42882   0.37158   1.000
    H49     H    0.37873   0.92881   0.37158   1.000
    H50     H    0.87873   0.42882   0.37158   1.000
    H51     H    0.87874   0.92881   0.37158   1.000
    H52     H    0.02516   0.23713   0.26998   1.000
    H53     H    0.02516   0.73713   0.26998   1.000
    H54     H    0.52516   0.23713   0.26998   1.000
    H55     H    0.52516   0.73713   0.26998   1.000
    H56     H    0.30464   0.28108   0.04446   1.000
    H57     H    0.30465   0.78108   0.04446   1.000
    H58     H    0.80465   0.28108   0.04446   1.000
    H59     H    0.80465   0.78108   0.04446   1.000
    H60     H    0.10449   0.49023   0.23166   1.000
    H61     H    0.10450   0.99023   0.23166   1.000
    H62     H    0.60449   0.49023   0.23166   1.000
    H63     H    0.60450   0.99023   0.23166   1.000
    H64     H    0.08156   0.34466   0.92001   1.000
    H65     H    0.08157   0.84466   0.92001   1.000
    H66     H    0.58157   0.34466   0.92001   1.000
    H67     H    0.58157   0.84466   0.92001   1.000
    H68     H    0.35420   0.50165   0.01268   1.000
    H69     H    0.35421   0.00000   0.01268   1.000
    H70     H    0.85420   0.50165   0.01268   1.000
    H71     H    0.85421   0.00000   0.01268   1.000
    H72     H    0.12880   0.32118   0.12842   1.000
    H73     H    0.12880   0.82118   0.12842   1.000
    H74     H    0.62880   0.32118   0.12842   1.000
    H75     H    0.62881   0.82118   0.12842   1.000
    H76     H    0.27501   0.01289   0.23001   1.000
    H77     H    0.27502   0.51289   0.23001   1.000
    H78     H    0.77502   0.01289   0.23001   1.000
    H79     H    0.77502   0.51289   0.23001   1.000
    H80     H    0.05463   0.46925   0.45520   1.000
    H81     H    0.05463   0.96924   0.45520   1.000
    H82     H    0.55463   0.46925   0.45520   1.000
    H83     H    0.55464   0.96924   0.45520   1.000
    H84     H    0.35450   0.25969   0.26827   1.000
    H85     H    0.35451   0.75969   0.26827   1.000
    H86     H    0.85451   0.25969   0.26827   1.000
    H87     H    0.85451   0.75969   0.26827   1.000
    H88     H    0.33165   0.40525   0.57981   1.000
    H89     H    0.33166   0.90524   0.57981   1.000
    H90     H    0.83166   0.40525   0.57981   1.000
    H91     H    0.83166   0.90524   0.57981   1.000
    H92     H    0.10425   0.24855   0.48758   1.000
    H93     H    0.10425   0.74855   0.48758   1.000
    H94     H    0.60425   0.24855   0.48758   1.000
    H95     H    0.60426   0.74855   0.48758   1.000
    H96     H    0.12128   0.07117   0.62839   1.000
    H97     H    0.12128   0.57117   0.62839   1.000
    H98     H    0.62128   0.07117   0.62839   1.000
    H99     H    0.62129   0.57117   0.62839   1.000
    C100    C    0.98827   0.74029   0.79225   1.000
    C101    C    0.14148   0.21161   0.94870   1.000
    C102    C    0.14149   0.71160   0.94870   1.000
    C103    C    0.64148   0.21160   0.94870   1.000
    H104    H    0.47485   0.26286   0.72999   1.000
    H105    H    0.47486   0.76285   0.72999   1.000
    H106    H    0.97486   0.26286   0.72999   1.000
    H107    H    0.97486   0.76285   0.72999   1.000
    H108    H    0.19536   0.21891   0.95551   1.000
    H109    H    0.19537   0.71891   0.95550   1.000
    H110    H    0.69537   0.21891   0.95550   1.000
    H111    H    0.69537   0.71891   0.95550   1.000
    H112    H    0.39552   0.00976   0.76831   1.000
    H113    H    0.39552   0.50976   0.76831   1.000
    H114    H    0.89552   0.00976   0.76831   1.000
    H115    H    0.89553   0.50976   0.76831   1.000
    H116    H    0.41845   0.15533   0.07990   1.000
    H117    H    0.41845   0.65533   0.07990   1.000
    H118    H    0.91845   0.15533   0.07990   1.000
    H119    H    0.91845   0.65533   0.07990   1.000
    H120    H    0.14581   0.99834   0.98729   1.000
    H121    H    0.14581   0.49834   0.98729   1.000
    H122    H    0.64581   0.99834   0.98729   1.000
    H123    H    0.64582   0.49834   0.98729   1.000
    H124    H    0.37121   0.17881   0.87155   1.000
    H125    H    0.37121   0.67881   0.87155   1.000
    H126    H    0.87121   0.17881   0.87155   1.000
    H127    H    0.87122   0.67881   0.87155   1.000
    H128    H    0.22500   0.48710   0.76996   1.000
    H129    H    0.22500   0.98710   0.76996   1.000
    H130    H    0.72500   0.48710   0.76996   1.000
    H131    H    0.72500   0.98710   0.76996   1.000
    O132    O    0.37562   0.32581   0.11200   1.000
    O133    O    0.37563   0.82581   0.11200   1.000
    O134    O    0.87563   0.32581   0.11200   1.000
    O135    O    0.87563   0.82581   0.11200   1.000
    O136    O    0.39647   0.25993   0.00044   1.000
    H137    H    0.44538   0.03075   0.54477   1.000
    H138    H    0.44539   0.53074   0.54477   1.000
    H139    H    0.94539   0.03075   0.54477   1.000
    H140    H    0.94539   0.53074   0.54477   1.000
    H141    H    0.14550   0.24030   0.73170   1.000
    H142    H    0.14551   0.74030   0.73170   1.000
    H143    H    0.64551   0.24030   0.73170   1.000
    H144    H    0.64551   0.74030   0.73170   1.000
    H145    H    0.16836   0.09475   0.42016   1.000
    H146    H    0.16836   0.59474   0.42016   1.000
    H147    H    0.66836   0.09475   0.42016   1.000
    H148    H    0.66836   0.59474   0.42016   1.000
    H149    H    0.39576   0.25144   0.51239   1.000
    H150    H    0.39576   0.75144   0.51239   1.000
    H151    H    0.89576   0.25144   0.51239   1.000
    H152    H    0.89577   0.75144   0.51239   1.000
    C153    C    0.41939   0.41270   0.32831   1.000
    C154    C    0.41939   0.91270   0.32831   1.000
    C155    C    0.91939   0.41270   0.32831   1.000
    C156    C    0.91940   0.91270   0.32831   1.000
    C157    C    0.01174   0.25970   0.20772   1.000
    C158    C    0.01175   0.75970   0.20772   1.000
    C159    C    0.51175   0.25970   0.20772   1.000
    C160    C    0.51175   0.75970   0.20772   1.000
    C161    C    0.35853   0.28839   0.05127   1.000
    C162    C    0.35853   0.78838   0.05127   1.000
    C163    C    0.85853   0.28839   0.05127   1.000
    C164    C    0.85854   0.78838   0.05127   1.000
    C165    C    0.06823   0.47573   0.18010   1.000
    C166    C    0.06824   0.97572   0.18010   1.000
    C167    C    0.56824   0.47573   0.18010   1.000
    C168    C    0.56824   0.97572   0.18010   1.000
    C169    C    0.05092   0.37160   0.96575   1.000
    C170    C    0.05093   0.87160   0.96575   1.000
    C171    C    0.55093   0.37160   0.96575   1.000
    C172    C    0.55093   0.87160   0.96575   1.000
    C173    C    0.36315   0.46510   0.05758   1.000
    C174    C    0.36315   0.96510   0.05758   1.000
    C175    C    0.86315   0.46510   0.05758   1.000
    C176    C    0.86316   0.96510   0.05758   1.000
    C177    C    0.16944   0.33733   0.17160   1.000
    C178    C    0.16944   0.83733   0.17160   1.000
    C179    C    0.66944   0.33733   0.17160   1.000
    C180    C    0.66945   0.83733   0.17160   1.000
    C181    C    0.26167   0.49031   0.29227   1.000
    C182    C    0.26168   0.99031   0.29227   1.000
    C183    C    0.76168   0.49031   0.29227   1.000
    C184    C    0.76168   0.99031   0.29227   1.000
    C185    C    0.10850   0.46176   0.44855   1.000
    C186    C    0.10851   0.96176   0.44855   1.000
    C187    C    0.60851   0.46176   0.44855   1.000
    C188    C    0.60851   0.96176   0.44855   1.000
    C189    C    0.31824   0.27424   0.31979   1.000
    C190    C    0.31825   0.77423   0.31979   1.000
    C191    C    0.81824   0.27424   0.31979   1.000
    C192    C    0.81825   0.77423   0.31979   1.000
    C193    C    0.30095   0.37833   0.53416   1.000
    C194    C    0.30096   0.87833   0.53416   1.000
    C195    C    0.80096   0.37833   0.53416   1.000
    C196    C    0.80096   0.87833   0.53416   1.000
    C197    C    0.11318   0.28499   0.44250   1.000
    C198    C    0.11318   0.78499   0.44250   1.000
    C199    C    0.61318   0.28499   0.44250   1.000
    C200    C    0.61319   0.78499   0.44250   1.000
    C201    C    0.08062   0.08729   0.67160   1.000
    C202    C    0.08062   0.58729   0.67160   1.000
    C203    C    0.58062   0.08729   0.67160   1.000
    C204    C    0.58062   0.58729   0.67160   1.000
    C205    C    0.48827   0.24029   0.79225   1.000
    C206    C    0.48827   0.74029   0.79225   1.000
    C207    C    0.98827   0.24029   0.79225   1.000
    O208    O    0.24978   0.97987   0.63830   1.000
    O209    O    0.74978   0.47987   0.63830   1.000
    O210    O    0.74979   0.97987   0.63830   1.000
    O211    O    0.37442   0.07574   0.61246   1.000
    O212    O    0.37442   0.57574   0.61246   1.000
    O213    O    0.87442   0.07574   0.61246   1.000
    O214    O    0.87443   0.57574   0.61246   1.000
    O215    O    0.35357   0.00988   0.50052   1.000
    C216    C    0.64149   0.71160   0.94870   1.000
    C217    C    0.43178   0.02427   0.81983   1.000
    C218    C    0.43178   0.52426   0.81983   1.000
    C219    C    0.93178   0.02427   0.81983   1.000
    C220    C    0.93178   0.52426   0.81983   1.000
    C221    C    0.44909   0.12839   0.03420   1.000
    C222    C    0.44909   0.62838   0.03420   1.000
    C223    C    0.94909   0.12839   0.03420   1.000
    C224    C    0.94909   0.62838   0.03420   1.000
    C225    C    0.13686   0.03489   0.94239   1.000
    C226    C    0.13687   0.53489   0.94239   1.000
    C227    C    0.63687   0.03489   0.94239   1.000
    C228    C    0.63687   0.53489   0.94239   1.000
    C229    C    0.33057   0.16266   0.82831   1.000
    C230    C    0.33057   0.66266   0.82831   1.000
    C231    C    0.83057   0.16266   0.82831   1.000
    C232    C    0.83058   0.66266   0.82831   1.000
    C233    C    0.23833   0.00968   0.70770   1.000
    C234    C    0.23834   0.50968   0.70770   1.000
    C235    C    0.73834   0.00968   0.70770   1.000
    C236    C    0.73834   0.50968   0.70770   1.000
    C237    C    0.39150   0.03823   0.55142   1.000
    C238    C    0.39151   0.53823   0.55142   1.000
    C239    C    0.89151   0.03823   0.55142   1.000
    C240    C    0.89151   0.53822   0.55142   1.000
    C241    C    0.18177   0.22576   0.68018   1.000
    C242    C    0.18177   0.72575   0.68018   1.000
    C243    C    0.68177   0.22576   0.68018   1.000
    C244    C    0.68178   0.72575   0.68018   1.000
    C245    C    0.19905   0.12166   0.46580   1.000
    C246    C    0.19906   0.62165   0.46580   1.000
    C247    C    0.69906   0.12166   0.46580   1.000
    C248    C    0.69906   0.62165   0.46581   1.000
    C249    C    0.38683   0.21500   0.55747   1.000
    C250    C    0.38683   0.71499   0.55747   1.000
    C251    C    0.88683   0.21500   0.55747   1.000
    C252    C    0.88684   0.71499   0.55747   1.000
    O253    O    0.40494   0.40132   0.24585   1.000
    O254    O    0.40494   0.90132   0.24585   1.000
    O255    O    0.90494   0.40132   0.24585   1.000
    O256    O    0.90495   0.90132   0.24585   1.000
    O257    O    0.47542   0.40765   0.36437   1.000
    O258    O    0.47542   0.90765   0.36437   1.000
    O259    O    0.97542   0.40765   0.36437   1.000
    O260    O    0.97542   0.90765   0.36437   1.000
    O261    O    0.00922   0.31530   0.21441   1.000
    O262    O    0.00923   0.81529   0.21441   1.000
    O263    O    0.50922   0.31530   0.21441   1.000
    O264    O    0.50923   0.81529   0.21441   1.000
    O265    O    0.00024   0.22989   0.13800   1.000
    O266    O    0.00024   0.72988   0.13800   1.000
    O267    O    0.50024   0.22989   0.13800   1.000
    O268    O    0.50025   0.72988   0.13800   1.000
    O269    O    0.39647   0.75993   0.00044   1.000
    O270    O    0.89647   0.25993   0.00044   1.000
    O271    O    0.89648   0.75993   0.00044   1.000
    O272    O    0.04407   0.42491   0.19117   1.000
    O273    O    0.04407   0.92491   0.19117   1.000
    O274    O    0.54407   0.42491   0.19117   1.000
    O275    O    0.54407   0.92491   0.19117   1.000
    O276    O    0.05544   0.00979   0.11811   1.000
    O277    O    0.05544   0.50979   0.11811   1.000
    O278    O    0.55544   0.00979   0.11811   1.000
    O279    O    0.55545   0.50979   0.11811   1.000
    O280    O    0.01398   0.34295   0.02028   1.000
    O281    O    0.01399   0.84294   0.02028   1.000
    O282    O    0.51399   0.34295   0.02028   1.000
    O283    O    0.51399   0.84294   0.02028   1.000
    O284    O    0.05540   0.42533   0.96110   1.000
    O285    O    0.05541   0.92533   0.96110   1.000
    O286    O    0.55541   0.42533   0.96110   1.000
    O287    O    0.55541   0.92533   0.96110   1.000
    O288    O    0.42385   0.44817   0.06295   1.000
    O289    O    0.42385   0.94817   0.06295   1.000
    O290    O    0.92385   0.44817   0.06295   1.000
    O291    O    0.92386   0.94817   0.06295   1.000
    O292    O    0.31414   0.44463   0.09782   1.000
    O293    O    0.31415   0.94463   0.09782   1.000
    O294    O    0.81415   0.44463   0.09782   1.000
    O295    O    0.81415   0.94463   0.09782   1.000
    O296    O    0.15497   0.34879   0.25409   1.000
    O297    O    0.15498   0.84879   0.25409   1.000
    O298    O    0.65498   0.34879   0.25409   1.000
    O299    O    0.65498   0.84879   0.25409   1.000
    O300    O    0.22545   0.34237   0.13559   1.000
    O301    O    0.22546   0.84236   0.13559   1.000
    O302    O    0.72546   0.34237   0.13559   1.000
    O303    O    0.72546   0.84236   0.13559   1.000
    O304    O    0.25914   0.43472   0.28554   1.000
    O305    O    0.25914   0.93472   0.28554   1.000
    O306    O    0.75914   0.43472   0.28554   1.000
    O307    O    0.75915   0.93472   0.28554   1.000
    O308    O    0.25023   0.02012   0.36165   1.000
    O309    O    0.25023   0.52012   0.36165   1.000
    O310    O    0.75023   0.02012   0.36165   1.000
    O311    O    0.75024   0.52012   0.36165   1.000
    O312    O    0.12559   0.42425   0.38751   1.000
    O313    O    0.12560   0.92425   0.38751   1.000
    O314    O    0.62560   0.42425   0.38751   1.000
    O315    O    0.62560   0.92425   0.38751   1.000
    O316    O    0.14644   0.49012   0.49940   1.000
    O317    O    0.14644   0.99011   0.49940   1.000
    O318    O    0.64644   0.49012   0.49940   1.000
    O319    O    0.64645   0.99011   0.49940   1.000
    O320    O    0.29410   0.32510   0.30879   1.000
    O321    O    0.29411   0.82509   0.30879   1.000
    O322    O    0.79411   0.32510   0.30879   1.000
    O323    O    0.79411   0.82509   0.30879   1.000
    O324    O    0.30544   0.24019   0.38181   1.000
    O325    O    0.30545   0.74018   0.38181   1.000
    O326    O    0.80544   0.24019   0.38181   1.000
    O327    O    0.80545   0.74018   0.38181   1.000
    O328    O    0.26400   0.40704   0.47965   1.000
    O329    O    0.26401   0.90704   0.47965   1.000
    O330    O    0.76401   0.40704   0.47965   1.000
    O331    O    0.76401   0.90704   0.47965   1.000
    O332    O    0.30540   0.32460   0.53880   1.000
    O333    O    0.30541   0.82460   0.53880   1.000
    O334    O    0.80540   0.32460   0.53880   1.000
    O335    O    0.80541   0.82460   0.53880   1.000
    O336    O    0.17386   0.30188   0.43707   1.000
    O337    O    0.17387   0.80188   0.43707   1.000
    O338    O    0.67387   0.30188   0.43707   1.000
    O339    O    0.67387   0.80188   0.43707   1.000
    O340    O    0.06416   0.30543   0.40217   1.000
    O341    O    0.06417   0.80542   0.40217   1.000
    O342    O    0.56416   0.30543   0.40217   1.000
    O343    O    0.56417   0.80542   0.40217   1.000
    O344    O    0.09507   0.09867   0.75412   1.000
    O345    O    0.09507   0.59867   0.75412   1.000
    O346    O    0.59507   0.09867   0.75412   1.000
    O347    O    0.59508   0.59867   0.75412   1.000
    O348    O    0.02459   0.09234   0.63560   1.000
    O349    O    0.02459   0.59234   0.63560   1.000
    O350    O    0.52460   0.09234   0.63560   1.000
    O351    O    0.52460   0.59234   0.63560   1.000
    O352    O    0.49079   0.18469   0.78556   1.000
    O353    O    0.49079   0.68469   0.78556   1.000
    O354    O    0.99079   0.18469   0.78556   1.000
    O355    O    0.99079   0.68469   0.78556   1.000
    O356    O    0.49977   0.27010   0.86158   1.000
    O357    O    0.49978   0.77010   0.86158   1.000
    O358    O    0.99977   0.27010   0.86158   1.000
    O359    O    0.99978   0.77010   0.86158   1.000
    O360    O    0.12439   0.17418   0.88758   1.000
    O361    O    0.12439   0.67418   0.88758   1.000
    O362    O    0.62439   0.17418   0.88758   1.000
    O363    O    0.62439   0.67418   0.88758   1.000
    O364    O    0.10354   0.24006   0.99953   1.000
    O365    O    0.10355   0.74006   0.99953   1.000
    O366    O    0.60354   0.24006   0.99953   1.000
    O367    O    0.60355   0.74006   0.99953   1.000
    O368    O    0.45594   0.07508   0.80880   1.000
    O369    O    0.45595   0.57507   0.80880   1.000
    O370    O    0.95595   0.07508   0.80880   1.000
    O371    O    0.95595   0.57507   0.80880   1.000
    O372    O    0.44457   0.49020   0.88186   1.000
    O373    O    0.44457   0.99020   0.88186   1.000
    O374    O    0.94457   0.49020   0.88186   1.000
    O375    O    0.94458   0.99020   0.88186   1.000
    O376    O    0.48603   0.15705   0.97969   1.000
    O377    O    0.48603   0.65704   0.97969   1.000
    O378    O    0.98603   0.15705   0.97969   1.000
    O379    O    0.98603   0.65704   0.97969   1.000
    O380    O    0.44460   0.07466   0.03887   1.000
    O381    O    0.44461   0.57466   0.03887   1.000
    O382    O    0.94461   0.07466   0.03887   1.000
    O383    O    0.94461   0.57466   0.03887   1.000
    O384    O    0.07616   0.05182   0.93702   1.000
    O385    O    0.07617   0.55182   0.93702   1.000
    O386    O    0.57616   0.05182   0.93702   1.000
    O387    O    0.57617   0.55182   0.93702   1.000
    O388    O    0.18587   0.05536   0.90216   1.000
    O389    O    0.18587   0.55536   0.90216   1.000
    O390    O    0.68587   0.05536   0.90216   1.000
    O391    O    0.68587   0.55536   0.90216   1.000
    O392    O    0.34504   0.15120   0.74588   1.000
    O393    O    0.34504   0.65120   0.74588   1.000
    O394    O    0.84504   0.15120   0.74588   1.000
    O395    O    0.84504   0.65120   0.74588   1.000
    O396    O    0.27455   0.15763   0.86438   1.000
    O397    O    0.27456   0.65762   0.86438   1.000
    O398    O    0.77456   0.15763   0.86438   1.000
    O399    O    0.77456   0.65762   0.86438   1.000
    O400    O    0.24087   0.06527   0.71443   1.000
    O401    O    0.24087   0.56527   0.71443   1.000
    O402    O    0.74087   0.06527   0.71443   1.000
    O403    O    0.74088   0.56527   0.71443   1.000
    O404    O    0.24978   0.47987   0.63830   1.000
    O405    O    0.35358   0.50987   0.50052   1.000
    O406    O    0.85357   0.00988   0.50052   1.000
    O407    O    0.85358   0.50987   0.50052   1.000
    O408    O    0.20591   0.17490   0.69118   1.000
    O409    O    0.20591   0.67489   0.69118   1.000
    O410    O    0.70591   0.17490   0.69118   1.000
    O411    O    0.70591   0.67489   0.69118   1.000
    O412    O    0.19457   0.25980   0.61816   1.000
    O413    O    0.19457   0.75980   0.61816   1.000
    O414    O    0.69457   0.25980   0.61816   1.000
    O415    O    0.69458   0.75980   0.61816   1.000
    O416    O    0.23601   0.09295   0.52032   1.000
    O417    O    0.23601   0.59295   0.52032   1.000
    O418    O    0.73601   0.09295   0.52032   1.000
    O419    O    0.73601   0.59295   0.52032   1.000
    O420    O    0.19461   0.17539   0.46112   1.000
    O421    O    0.19461   0.67538   0.46112   1.000
    O422    O    0.69461   0.17539   0.46112   1.000
    O423    O    0.69462   0.67538   0.46112   1.000
    O424    O    0.32615   0.19811   0.56290   1.000
    O425    O    0.32615   0.69811   0.56290   1.000
    O426    O    0.82615   0.19811   0.56290   1.000
    O427    O    0.82615   0.69811   0.56290   1.000
    O428    O    0.43585   0.19456   0.59780   1.000
    O429    O    0.43585   0.69456   0.59780   1.000
    O430    O    0.93585   0.19456   0.59780   1.000
    O431    O    0.93586   0.69456   0.59780   1.000
loop_
    _geom_bond_atom_site_label_1
    _geom_bond_atom_site_label_2
    _geom_bond_distance
    _geom_bond_site_symmetry_2
    _ccdc_geom_bond_type
    Zn35   O269      2.10343      .   S
    Zn35   O268      2.11451      .   S
    Zn35   O357      2.12058  1_554   S
    Zn35   O367      2.10345  1_554   S
    Zn40   O382      2.12549  1_455   S
    Zn40   O276      2.09232      .   S
    Zn40   O375      2.09255  1_444   S
    Zn40   O285      2.12598  1_544   S
    Zn41   O383      2.12545  1_455   S
    Zn41   O277      2.09237      .   S
    Zn41   O374      2.09258  1_454   S
    Zn41   O284      2.12579  1_554   S
    Zn42   O380      2.12556      .   S
    Zn42   O278      2.09231      .   S
    Zn42   O373      2.09262  1_544   S
    Zn42   O287      2.12597  1_544   S
    Zn43   O381      2.12558      .   S
    Zn43   O279      2.09233      .   S
    Zn43   O372      2.09271  1_554   S
    Zn43   O286      2.12575  1_554   S
    Zn34   O136      2.10344      .   S
    Zn34   O267      2.11450      .   S
    Zn34   O356      2.12058  1_554   S
    Zn34   O366      2.10345  1_554   S
    Zn33   O271      2.10329  1_455   S
    Zn33   O266      2.11451      .   S
    Zn33   O359      2.12057  1_454   S
    Zn33   O365      2.10345  1_554   S
    Zn31   O270      2.10330  1_455   S
    Zn31   O265      2.11450      .   S
    Zn31   O358      2.12057  1_454   S
    Zn31   O364      2.10344  1_554   S
    O136   C161      1.25316      .   S
    O269   C162      1.25316      .   S
    O270   C163      1.25315      .   S
    O271   C164      1.25316      .   S
    H68    C173      1.10204      .   S
    H69    C174      1.07269  1_545   S
    H70    C175      1.10203      .   S
    H71    C176      1.07269  1_545   S
    O280   Zn1       2.06096  1_455   S
    O280   C169      1.29452  1_554   S
    O281   Zn2       2.06097  1_455   S
    O281   C170      1.29454  1_554   S
    O282   Zn32      2.06104      .   S
    O282   C171      1.29452  1_554   S
    O283   Zn0       2.06104      .   S
    O283   C172      1.29452  1_554   S
    C223   O382      1.24780      .   S
    C223   H118      1.10232      .   S
    C223   O378      1.29433  1_554   S
    C224   O383      1.24778      .   S
    C224   H119      1.10233      .   S
    C224   O379      1.29433  1_554   S
    C222   O381      1.24778      .   S
    C222   H117      1.10233      .   S
    C222   O377      1.29435  1_554   S
    C221   O380      1.24780      .   S
    C221   H116      1.10232      .   S
    C221   O376      1.29432  1_554   S
    H59    C164      1.10572      .   S
    H58    C163      1.10572      .   S
    H57    C162      1.10570      .   S
    H56    C161      1.10572      .   S
    C161   O132      1.28533      .   S
    C162   O133      1.28533      .   S
    C163   O134      1.28533      .   S
    C164   O135      1.28533      .   S
    C173   O288      1.28949      .   S
    C173   O292      1.25450      .   S
    C174   O289      1.28949      .   S
    C174   O293      1.25450      .   S
    C175   O290      1.28949      .   S
    C175   O294      1.25450      .   S
    C176   O291      1.28949      .   S
    C176   O295      1.25450      .   S
    O289   Zn0       2.09098      .   S
    O288   Zn32      2.09099      .   S
    O290   Zn1       2.09100      .   S
    O291   Zn2       2.09098      .   S
    O292   Zn11      2.06736      .   S
    O295   Zn14      2.06736      .   S
    O294   Zn13      2.06736      .   S
    O293   Zn12      2.06736      .   S
    O134   Zn1       2.16060      .   S
    O133   Zn0       2.16061      .   S
    O132   Zn32      2.16058      .   S
    O135   Zn2       2.16059      .   S
    O279   C167      1.25134      .   S
    O276   C166      1.25148  1_545   S
    O278   C168      1.25149  1_545   S
    O277   C165      1.25135      .   S
    H75    C180      1.10288      .   S
    H72    C177      1.10287      .   S
    H73    C178      1.10288      .   S
    H74    C179      1.10287      .   S
    Zn32   O274      2.14897      .   S
    Zn0    O275      2.14895      .   S
    Zn1    O272      2.14885  1_655   S
    Zn2    O273      2.14886  1_655   S
    O300   C177      1.25824      .   S
    O300   Zn11      2.05611      .   S
    O301   C178      1.25822      .   S
    O301   Zn12      2.05611      .   S
    O303   C180      1.25822      .   S
    O303   Zn14      2.05611      .   S
    O302   C179      1.25822      .   S
    O302   Zn13      2.05611      .   S
    O267   C159      1.25535      .   S
    O265   C157      1.25535      .   S
    O268   C160      1.25535      .   S
    O266   C158      1.25535      .   S
    C180   O299      1.28406      .   S
    C179   O298      1.28406      .   S
    C178   O297      1.28406      .   S
    C177   O296      1.28406      .   S
    C168   O275      1.28524      .   S
    C168   H63       1.10772      .   S
    C165   O272      1.28527      .   S
    C165   H60       1.10772      .   S
    C166   O273      1.28524      .   S
    C166   H61       1.10772      .   S
    C167   O274      1.28526      .   S
    C167   H62       1.10772      .   S
    Zn11   O253      2.16257      .   S
    Zn11   O304      2.12198      .   S
    Zn12   O254      2.16257      .   S
    Zn12   O305      2.12197      .   S
    Zn13   O255      2.16257      .   S
    Zn13   O306      2.12197      .   S
    Zn14   O256      2.16257      .   S
    Zn14   O307      2.12198      .   S
    C157   O261      1.28713      .   S
    C157   H52       1.10580      .   S
    C158   O262      1.28713      .   S
    C158   H53       1.10580      .   S
    C159   O263      1.28713      .   S
    C159   H54       1.10580      .   S
    C160   O264      1.28713      .   S
    C160   H55       1.10580      .   S
    O263   Zn5       2.11551      .   S
    O264   Zn6       2.11551      .   S
    O262   Zn4       2.11551      .   S
    O261   Zn3       2.11551      .   S
    H78    C184      1.10579  1_545   S
    H79    C183      1.10574      .   S
    H76    C182      1.10579  1_545   S
    H77    C181      1.10574      .   S
    O256   C156      1.28329      .   S
    O255   C155      1.28329      .   S
    O254   C154      1.28329      .   S
    O253   C153      1.28328      .   S
    O296   Zn3       2.15821      .   S
    O297   Zn4       2.15821      .   S
    O298   Zn5       2.15822      .   S
    O299   Zn6       2.15821      .   S
    H86    C191      1.10734      .   S
    H87    C192      1.10734      .   S
    H84    C189      1.10732      .   S
    H85    C190      1.10732      .   S
    O307   C184      1.28709      .   S
    O306   C183      1.28709      .   S
    O305   C182      1.28709      .   S
    O304   C181      1.28709      .   S
    C183   O311      1.25070      .   S
    C181   O309      1.25070      .   S
    C182   O308      1.25083  1_565   S
    C184   O310      1.25083  1_565   S
    Zn6    O258      2.05990      .   S
    Zn6    O343      2.07407      .   S
    Zn3    O259      2.05978  1_455   S
    Zn3    O340      2.07409      .   S
    Zn5    O257      2.05990      .   S
    Zn5    O342      2.07409      .   S
    Zn4    O260      2.05978  1_455   S
    Zn4    O341      2.07407      .   S
    O320   C189      1.28519      .   S
    O320   Zn7       2.14833      .   S
    O321   C190      1.28521      .   S
    O321   Zn8       2.14830      .   S
    O322   C191      1.28519      .   S
    O322   Zn9       2.14831      .   S
    O323   C192      1.28520      .   S
    O323   Zn10      2.14832      .   S
    C189   O324      1.25176      .   S
    C190   O325      1.25176      .   S
    C191   O326      1.25176      .   S
    C192   O327      1.25175      .   S
    C153   O257      1.25863      .   S
    C153   H48       1.10338      .   S
    C154   O258      1.25865      .   S
    C154   H49       1.10337      .   S
    C155   O259      1.25863      .   S
    C155   H50       1.10338      .   S
    C156   O260      1.25863      .   S
    C156   H51       1.10337      .   S
    O310   Zn38      2.11951  1_545   S
    O308   Zn36      2.11951  1_545   S
    O309   Zn37      2.11951      .   S
    O311   Zn39      2.11951      .   S
    Zn9    O314      2.15954      .   S
    Zn9    O338      2.09158      .   S
    Zn9    O330      2.06134      .   S
    Zn10   O315      2.15953      .   S
    Zn10   O339      2.09156      .   S
    Zn10   O331      2.06134      .   S
    Zn8    O313      2.15955      .   S
    Zn8    O337      2.09156      .   S
    Zn8    O329      2.06134      .   S
    Zn7    O312      2.15952      .   S
    Zn7    O336      2.09158      .   S
    Zn7    O328      2.06134      .   S
    O324   Zn44      2.09302      .   S
    O325   Zn45      2.09301      .   S
    O326   Zn46      2.09301      .   S
    O327   Zn47      2.09302      .   S
    O312   C185      1.28943      .   S
    O313   C186      1.28943      .   S
    O314   C187      1.28942      .   S
    O315   C188      1.28943      .   S
    O342   C199      1.25449      .   S
    O341   C198      1.25450      .   S
    O340   C197      1.25449      .   S
    O343   C200      1.25450      .   S
    H148   C248      1.10263      .   S
    H147   C247      1.10254      .   S
    H146   C246      1.10254      .   S
    H145   C245      1.10255      .   S
    O336   C197      1.28947      .   S
    O339   C200      1.28947      .   S
    O337   C198      1.28949      .   S
    O338   C199      1.28948      .   S
    C200   H95       1.10193      .   S
    C199   H94       1.10194      .   S
    C198   H93       1.10193      .   S
    C197   H92       1.10195      .   S
    C188   H83       1.10575      .   S
    C188   O319      1.25263      .   S
    C187   H82       1.10575      .   S
    C187   O318      1.25263      .   S
    C186   H81       1.10573      .   S
    C186   O317      1.25263      .   S
    C185   H80       1.10575      .   S
    C185   O316      1.25263      .   S
    O420   C245      1.24770      .   S
    O420   Zn44      2.12585      .   S
    O421   C246      1.24772      .   S
    O421   Zn45      2.12586      .   S
    O422   C247      1.24770      .   S
    O422   Zn46      2.12585      .   S
    O423   C248      1.24774      .   S
    O423   Zn47      2.12585      .   S
    C247   O418      1.29458      .   S
    C246   O417      1.29457      .   S
    C245   O416      1.29457      .   S
    C248   O419      1.29447      .   S
    O328   C193      1.29447      .   S
    O329   C194      1.29447      .   S
    O330   C195      1.29447      .   S
    O331   C196      1.29447      .   S
    O319   Zn38      2.10409      .   S
    O316   Zn37      2.10424      .   S
    O317   Zn36      2.10409      .   S
    O318   Zn39      2.10424      .   S
    Zn36   O215      2.10424  1_565   S
    Zn36   O208      2.11912      .   S
    Zn47   O335      2.12560      .   S
    Zn47   O415      2.09289      .   S
    Zn46   O334      2.12562      .   S
    Zn46   O414      2.09289      .   S
    Zn45   O333      2.12560      .   S
    Zn45   O413      2.09289      .   S
    Zn44   O332      2.12562      .   S
    Zn44   O412      2.09289      .   S
    Zn39   O407      2.10424      .   S
    Zn39   O209      2.11907      .   S
    Zn38   O406      2.10424  1_565   S
    Zn38   O210      2.11912      .   S
    Zn37   O405      2.10426      .   S
    Zn37   O404      2.11907      .   S
    O215   C237      1.25307      .   S
    O405   C238      1.25308      .   S
    O406   C239      1.25307      .   S
    O407   C240      1.25307      .   S
    H152   C252      1.10192      .   S
    H151   C251      1.10193      .   S
    H150   C250      1.10193      .   S
    H149   C249      1.10192      .   S
    O419   Zn26      2.06134      .   S
    O418   Zn25      2.06134      .   S
    O417   Zn24      2.06134      .   S
    O416   Zn23      2.06134      .   S
    C195   O334      1.24768      .   S
    C195   H90       1.10263      .   S
    C196   O335      1.24768      .   S
    C196   H91       1.10264      .   S
    C194   O333      1.24768      .   S
    C194   H89       1.10263      .   S
    C193   O332      1.24768      .   S
    C193   H88       1.10263      .   S
    H137   C237      1.10575      .   S
    H138   C238      1.10573      .   S
    H139   C239      1.10574      .   S
    H140   C240      1.10575      .   S
    C240   O214      1.28942      .   S
    C237   O211      1.28942      .   S
    C238   O212      1.28941      .   S
    C239   O213      1.28943      .   S
    C250   O425      1.28949      .   S
    C250   O429      1.25449      .   S
    C249   O424      1.28949      .   S
    C249   O428      1.25450      .   S
    C252   O427      1.28949      .   S
    C252   O431      1.25449      .   S
    C251   O426      1.28949      .   S
    C251   O430      1.25450      .   S
    O424   Zn23      2.09156      .   S
    O425   Zn24      2.09156      .   S
    O426   Zn25      2.09155      .   S
    O427   Zn26      2.09156      .   S
    O430   Zn21      2.06700      .   S
    O429   Zn20      2.06701      .   S
    O428   Zn19      2.06700      .   S
    O431   Zn22      2.06701      .   S
    O214   Zn26      2.15955      .   S
    O213   Zn25      2.15953      .   S
    O212   Zn24      2.15955      .   S
    O211   Zn23      2.15955      .   S
    O415   C244      1.25176      .   S
    O414   C243      1.25174      .   S
    O413   C242      1.25176      .   S
    O412   C241      1.25174      .   S
    H99    C204      1.10286      .   S
    H98    C203      1.10286      .   S
    H97    C202      1.10286      .   S
    H96    C201      1.10286      .   S
    Zn23   O408      2.14832      .   S
    Zn24   O409      2.14831      .   S
    Zn25   O410      2.14832      .   S
    Zn26   O411      2.14833      .   S
    O348   C201      1.25825      .   S
    O348   Zn21      2.05571  1_455   S
    O349   C202      1.25827      .   S
    O349   Zn22      2.05569  1_455   S
    O350   C203      1.25825      .   S
    O350   Zn19      2.05582      .   S
    O351   C204      1.25825      .   S
    O351   Zn20      2.05582      .   S
    O404   C234      1.25094      .   S
    O210   C235      1.25107  1_565   S
    O209   C236      1.25094      .   S
    O208   C233      1.25107  1_565   S
    C201   O344      1.28414      .   S
    C202   O345      1.28414      .   S
    C203   O346      1.28414      .   S
    C204   O347      1.28414      .   S
    C244   O411      1.28519      .   S
    C244   H144      1.10733      .   S
    C243   O410      1.28521      .   S
    C243   H143      1.10733      .   S
    C242   O409      1.28519      .   S
    C242   H142      1.10733      .   S
    C241   O408      1.28521      .   S
    C241   H141      1.10733      .   S
    Zn19   O392      2.16201      .   S
    Zn19   O352      2.12214      .   S
    Zn20   O393      2.16200      .   S
    Zn20   O353      2.12216      .   S
    Zn21   O394      2.16200      .   S
    Zn21   O354      2.12214      .   S
    Zn22   O395      2.16201      .   S
    Zn22   O355      2.12215      .   S
    C236   O403      1.28709      .   S
    C236   H130      1.10575      .   S
    C234   O401      1.28709      .   S
    C234   H128      1.10574      .   S
    C233   O400      1.28709      .   S
    C233   H129      1.10579  1_545   S
    C235   O402      1.28709      .   S
    C235   H131      1.10579  1_545   S
    O402   Zn29      2.12197      .   S
    O403   Zn30      2.12197      .   S
    O400   Zn27      2.12198      .   S
    O401   Zn28      2.12197      .   S
    H107   C100      1.10580      .   S
    H106   C207      1.10580      .   S
    H104   C205      1.10580      .   S
    H105   C206      1.10580      .   S
    O392   C229      1.28321      .   S
    O394   C231      1.28321      .   S
    O393   C230      1.28321      .   S
    O395   C232      1.28321      .   S
    O344   Zn27      2.16255      .   S
    O345   Zn28      2.16257      .   S
    O346   Zn29      2.16257      .   S
    O347   Zn30      2.16257      .   S
    H112   C217      1.10733      .   S
    H113   C218      1.10733      .   S
    H114   C219      1.10731      .   S
    H115   C220      1.10731      .   S
    O352   C205      1.28716      .   S
    O353   C206      1.28713      .   S
    O354   C207      1.28716      .   S
    O355   C100      1.28713      .   S
    C205   O356      1.25061      .   S
    C100   O359      1.25063      .   S
    C207   O358      1.25061      .   S
    C206   O357      1.25062      .   S
    Zn27   O396      2.05611      .   S
    Zn27   O388      2.06746      .   S
    Zn28   O397      2.05611      .   S
    Zn28   O389      2.06746      .   S
    Zn29   O398      2.05611      .   S
    Zn29   O390      2.06746      .   S
    Zn30   O399      2.05611      .   S
    Zn30   O391      2.06746      .   S
    O371   C220      1.28516      .   S
    O371   Zn16      2.14872  1_655   S
    O370   C219      1.28518      .   S
    O370   Zn15      2.14872  1_655   S
    O369   C218      1.28515      .   S
    O369   Zn18      2.14884      .   S
    O368   C217      1.28516      .   S
    O368   Zn17      2.14883      .   S
    C220   O374      1.25179      .   S
    C219   O375      1.25191  1_545   S
    C218   O372      1.25179      .   S
    C217   O373      1.25193  1_545   S
    C231   O398      1.25860      .   S
    C231   H126      1.10339      .   S
    C229   O396      1.25862      .   S
    C229   H124      1.10338      .   S
    C230   O397      1.25860      .   S
    C230   H125      1.10339      .   S
    C232   O399      1.25860      .   S
    C232   H127      1.10339      .   S
    Zn15   O360      2.16001      .   S
    Zn15   O384      2.09115      .   S
    Zn15   O378      2.06120  1_455   S
    Zn16   O361      2.16001      .   S
    Zn16   O385      2.09113      .   S
    Zn16   O379      2.06121  1_455   S
    Zn17   O362      2.16001      .   S
    Zn17   O386      2.09115      .   S
    Zn17   O376      2.06127      .   S
    Zn18   O363      2.16001      .   S
    Zn18   O387      2.09113      .   S
    Zn18   O377      2.06127      .   S
    O363   C216      1.28933      .   S
    O362   C103      1.28932      .   S
    O361   C102      1.28934      .   S
    O360   C101      1.28933      .   S
    O390   C227      1.25444      .   S
    O389   C226      1.25443      .   S
    O391   C228      1.25443      .   S
    O388   C225      1.25444      .   S
    H64    C169      1.10269      .   S
    H65    C170      1.10267      .   S
    H66    C171      1.10269      .   S
    H67    C172      1.10268      .   S
    O386   C227      1.28949      .   S
    O387   C228      1.28949      .   S
    O385   C226      1.28949      .   S
    O384   C225      1.28949      .   S
    C228   H123      1.10205      .   S
    C227   H122      1.10203  1_545   S
    C226   H121      1.10205      .   S
    C225   H120      1.10203  1_545   S
    C216   H111      1.10571      .   S
    C216   O367      1.25316      .   S
    C103   H110      1.10571      .   S
    C103   O366      1.25316      .   S
    C102   H109      1.10569      .   S
    C102   O365      1.25316      .   S
    C101   H108      1.10572      .   S
    C101   O364      1.25316      .   S
    O284   C169      1.24776      .   S
    O285   C170      1.24778      .   S
    O286   C171      1.24776      .   S
    O287   C172      1.24778      .   S
    O253   Zn32      2.16301      .   S
    O254   Zn0       2.16301      .   S
    O255   Zn1       2.16301      .   S
    O256   Zn2       2.16300      .   S
    O261   Zn1       2.13568  1_455   S
    O262   Zn2       2.13570  1_455   S
    O263   Zn32      2.13574      .   S
    O264   Zn0       2.13576      .   S
    O132   Zn11      2.17144      .   S
    O133   Zn12      2.17144      .   S
    O134   Zn13      2.17144      .   S
    O135   Zn14      2.17144      .   S
    O272   Zn3       2.18924      .   S
    O273   Zn4       2.18925      .   S
    O274   Zn5       2.18923      .   S
    O275   Zn6       2.18925      .   S
    O280   Zn31      2.18079      .   S
    O281   Zn33      2.18076      .   S
    O282   Zn34      2.18079      .   S
    O283   Zn35      2.18077      .   S
    O288   Zn43      2.17361      .   S
    O289   Zn42      2.17360  1_565   S
    O290   Zn41      2.17345  1_655   S
    O291   Zn40      2.17348  1_665   S
    O296   Zn7       2.16261      .   S
    O297   Zn8       2.16263      .   S
    O298   Zn9       2.16261      .   S
    O299   Zn10      2.16261      .   S
    O304   Zn7       2.13604      .   S
    O305   Zn8       2.13604      .   S
    O306   Zn9       2.13604      .   S
    O307   Zn10      2.13604      .   S
    O312   Zn3       2.17465      .   S
    O313   Zn4       2.17467      .   S
    O314   Zn5       2.17465      .   S
    O315   Zn6       2.17467      .   S
    O320   Zn11      2.19796      .   S
    O321   Zn12      2.19795      .   S
    O322   Zn13      2.19796      .   S
    O323   Zn14      2.19795      .   S
    O328   Zn37      2.18064      .   S
    O329   Zn36      2.18085      .   S
    O330   Zn39      2.18064      .   S
    O331   Zn38      2.18085      .   S
    O336   Zn44      2.17271      .   S
    O337   Zn45      2.17271      .   S
    O338   Zn46      2.17271      .   S
    O339   Zn47      2.17271      .   S
    O344   Zn15      2.16278      .   S
    O345   Zn16      2.16278      .   S
    O346   Zn17      2.16278      .   S
    O347   Zn18      2.16278      .   S
    O352   Zn17      2.13556      .   S
    O353   Zn18      2.13558      .   S
    O354   Zn15      2.13550  1_655   S
    O355   Zn16      2.13552  1_655   S
    O360   Zn27      2.16835      .   S
    O361   Zn28      2.16836      .   S
    O362   Zn29      2.16836      .   S
    O363   Zn30      2.16836      .   S
    O368   Zn19      2.19753      .   S
    O369   Zn20      2.19753      .   S
    O370   Zn21      2.19753      .   S
    O371   Zn22      2.19753      .   S
    O376   Zn34      2.18093  1_556   S
    O377   Zn35      2.18093  1_556   S
    O378   Zn31      2.18091  1_656   S
    O379   Zn33      2.18091  1_656   S
    O384   Zn40      2.17377  1_556   S
    O385   Zn41      2.17384  1_556   S
    O386   Zn42      2.17375  1_556   S
    O387   Zn43      2.17378  1_556   S
    O392   Zn23      2.16261      .   S
    O393   Zn24      2.16263      .   S
    O394   Zn25      2.16261      .   S
    O395   Zn26      2.16261      .   S
    O400   Zn23      2.13604      .   S
    O401   Zn24      2.13604      .   S
    O402   Zn25      2.13605      .   S
    O403   Zn26      2.13604      .   S
    O211   Zn19      2.16922      .   S
    O212   Zn20      2.16922      .   S
    O213   Zn21      2.16922      .   S
    O214   Zn22      2.16922      .   S
    O408   Zn27      2.19795      .   S
    O409   Zn28      2.19796      .   S
    O410   Zn29      2.19795      .   S
    O411   Zn30      2.19796      .   S
    O416   Zn36      2.18065  1_545   S
    O417   Zn37      2.18065      .   S
    O418   Zn38      2.18065  1_545   S
    O419   Zn39      2.18065      .   S
    O424   Zn44      2.17265      .   S
    O425   Zn45      2.17265      .   S
    O426   Zn46      2.17263      .   S
    O427   Zn47      2.17266      .   S
