# CIF file generated by openbabel 2.4.90, see http://openbabel.sf.net
data_I
_chemical_name_common ''
_cell_length_a 20.196
_cell_length_b 23.101
_cell_length_c 14.88
_cell_angle_alpha 91.161
_cell_angle_beta 90
_cell_angle_gamma 89.958
_space_group_name_H-M_alt 'P 1'
_space_group_name_Hall 'P 1'
loop_
    _symmetry_equiv_pos_as_xyz
    x,y,z
loop_
    _atom_site_label
    _atom_site_type_symbol
    _atom_site_fract_x
    _atom_site_fract_y
    _atom_site_fract_z
    _atom_site_occupancy
    Zn0     Zn   0.46400   0.87747   0.12960   1.000
    Zn1     Zn   0.96400   0.37747   0.12960   1.000
    Zn2     Zn   0.96400   0.87747   0.12960   1.000
    Zn3     Zn   0.05862   0.37023   0.30800   1.000
    Zn4     Zn   0.05862   0.87023   0.30800   1.000
    Zn5     Zn   0.55862   0.37023   0.30800   1.000
    Zn6     Zn   0.55863   0.87023   0.30800   1.000
    Zn7     Zn   0.21399   0.37255   0.37035   1.000
    Zn8     Zn   0.21399   0.87254   0.37035   1.000
    Zn9     Zn   0.71399   0.37255   0.37035   1.000
    Zn10    Zn   0.71400   0.87254   0.37035   1.000
    Zn11    Zn   0.30861   0.37979   0.19126   1.000
    Zn12    Zn   0.30862   0.87979   0.19126   1.000
    Zn13    Zn   0.80862   0.37979   0.19126   1.000
    Zn14    Zn   0.80862   0.87979   0.19126   1.000
    Zn15    Zn   0.03602   0.12252   0.87035   1.000
    Zn16    Zn   0.03602   0.62252   0.87035   1.000
    Zn17    Zn   0.53602   0.12252   0.87035   1.000
    Zn18    Zn   0.53603   0.62252   0.87035   1.000
    Zn19    Zn   0.44139   0.12976   0.69128   1.000
    Zn20    Zn   0.44139   0.62976   0.69128   1.000
    Zn21    Zn   0.94139   0.12976   0.69128   1.000
    Zn22    Zn   0.94140   0.62976   0.69128   1.000
    Zn23    Zn   0.28602   0.12745   0.62962   1.000
    Zn24    Zn   0.28603   0.62744   0.62962   1.000
    Zn25    Zn   0.78603   0.12745   0.62962   1.000
    Zn26    Zn   0.78603   0.62744   0.62962   1.000
    Zn27    Zn   0.19139   0.12020   0.80871   1.000
    Zn28    Zn   0.19140   0.62020   0.80871   1.000
    Zn29    Zn   0.69140   0.12020   0.80871   1.000
    Zn30    Zn   0.69140   0.62020   0.80871   1.000
    Zn31    Zn   0.00000   0.25000   0.00000   1.000
    Zn32    Zn   0.46399   0.37747   0.12960   1.000
    Zn33    Zn   0.00001   0.74999   0.00000   1.000
    Zn34    Zn   0.50001   0.25000   0.00000   1.000
    Zn35    Zn   0.50001   0.74999   0.00000   1.000
    Zn36    Zn   0.25000   1.00000   0.49999   1.000
    Zn37    Zn   0.25001   0.49999   0.49999   1.000
    Zn38    Zn   0.75001   1.00000   0.49999   1.000
    Zn39    Zn   0.75001   0.49999   0.49999   1.000
    Zn40    Zn   0.00000   0.00000   0.00000   1.000
    Zn41    Zn   0.00000   0.50000   0.00000   1.000
    Zn42    Zn   0.50000   0.00000   0.00000   1.000
    Zn43    Zn   0.50001   0.50000   0.00000   1.000
    Zn44    Zn   0.25000   0.25000   0.49999   1.000
    Zn45    Zn   0.25001   0.74999   0.49999   1.000
    Zn46    Zn   0.75001   0.25000   0.49999   1.000
    Zn47    Zn   0.75001   0.74999   0.49999   1.000
    Ts48    Ts   0.43454   0.86025   0.12373   1.000
    Ts49    Ts   0.44431   0.88542   0.16835   1.000
    Ts50    Ts   0.47907   0.85674   0.15787   1.000
    Ts51    Ts   0.49069   0.89328   0.15012   1.000
    Ts52    Ts   0.48066   0.86596   0.09316   1.000
    Ts53    Ts   0.45061   0.90103   0.10738   1.000
    Ts54    Ts   0.93454   0.36025   0.12373   1.000
    Ts55    Ts   0.94431   0.38542   0.16835   1.000
    Ts56    Ts   0.97907   0.35675   0.15787   1.000
    Ts57    Ts   0.99069   0.39328   0.15012   1.000
    Ts58    Ts   0.98066   0.36596   0.09316   1.000
    Ts59    Ts   0.95061   0.40104   0.10738   1.000
    Ts60    Ts   0.93454   0.86025   0.12373   1.000
    Ts61    Ts   0.94432   0.88542   0.16835   1.000
    Ts62    Ts   0.97907   0.85674   0.15787   1.000
    Ts63    Ts   0.99069   0.89328   0.15012   1.000
    Ts64    Ts   0.98066   0.86596   0.09316   1.000
    Ts65    Ts   0.95062   0.90103   0.10738   1.000
    Ts66    Ts   0.03089   0.38270   0.32679   1.000
    Ts67    Ts   0.04215   0.35192   0.27680   1.000
    Ts68    Ts   0.05377   0.38846   0.26906   1.000
    Ts69    Ts   0.09074   0.36308   0.29003   1.000
    Ts70    Ts   0.08094   0.38824   0.33450   1.000
    Ts71    Ts   0.06047   0.34863   0.33939   1.000
    Ts72    Ts   0.03089   0.88270   0.32679   1.000
    Ts73    Ts   0.04216   0.85192   0.27680   1.000
    Ts74    Ts   0.05377   0.88846   0.26906   1.000
    Ts75    Ts   0.09074   0.86308   0.29003   1.000
    Ts76    Ts   0.08095   0.88823   0.33450   1.000
    Ts77    Ts   0.06047   0.84863   0.33939   1.000
    Ts78    Ts   0.53089   0.38270   0.32679   1.000
    Ts79    Ts   0.54216   0.35192   0.27680   1.000
    Ts80    Ts   0.55377   0.38846   0.26906   1.000
    Ts81    Ts   0.59074   0.36308   0.29003   1.000
    Ts82    Ts   0.58095   0.38824   0.33450   1.000
    Ts83    Ts   0.56047   0.34863   0.33939   1.000
    Ts84    Ts   0.53089   0.88270   0.32679   1.000
    Ts85    Ts   0.54216   0.85192   0.27680   1.000
    Ts86    Ts   0.55378   0.88846   0.26906   1.000
    Ts87    Ts   0.59075   0.86308   0.29003   1.000
    Ts88    Ts   0.58095   0.88823   0.33450   1.000
    Ts89    Ts   0.56048   0.84863   0.33939   1.000
    Ts90    Ts   0.19432   0.36463   0.33160   1.000
    Ts91    Ts   0.22904   0.39327   0.34208   1.000
    Ts92    Ts   0.18452   0.38978   0.37607   1.000
    Ts93    Ts   0.24069   0.35673   0.34983   1.000
    Ts94    Ts   0.23066   0.38404   0.40678   1.000
    Ts95    Ts   0.20061   0.34899   0.39259   1.000
    Ts96    Ts   0.19432   0.86462   0.33160   1.000
    Ts97    Ts   0.22904   0.89327   0.34208   1.000
    Ts98    Ts   0.18453   0.88978   0.37607   1.000
    Ts99    Ts   0.24070   0.85672   0.34983   1.000
    Ts100   Ts   0.23066   0.88404   0.40678   1.000
    Ts101   Ts   0.20062   0.84899   0.39259   1.000
    Ts102   Ts   0.69432   0.36463   0.33160   1.000
    Ts103   Ts   0.72904   0.39327   0.34208   1.000
    Ts104   Ts   0.68453   0.38978   0.37607   1.000
    Ts105   Ts   0.74070   0.35673   0.34983   1.000
    Ts106   Ts   0.73066   0.38404   0.40678   1.000
    Ts107   Ts   0.70062   0.34899   0.39259   1.000
    Ts108   Ts   0.69432   0.86462   0.33160   1.000
    Ts109   Ts   0.72905   0.89327   0.34208   1.000
    Ts110   Ts   0.68453   0.88978   0.37607   1.000
    Ts111   Ts   0.74070   0.85672   0.34983   1.000
    Ts112   Ts   0.73067   0.88404   0.40678   1.000
    Ts113   Ts   0.70062   0.84899   0.39259   1.000
    Ts114   Ts   0.33095   0.36180   0.16484   1.000
    Ts115   Ts   0.34072   0.38697   0.20946   1.000
    Ts116   Ts   0.31046   0.40141   0.16011   1.000
    Ts117   Ts   0.28089   0.36732   0.17270   1.000
    Ts118   Ts   0.29212   0.39810   0.22269   1.000
    Ts119   Ts   0.30378   0.36156   0.23044   1.000
    Ts120   Ts   0.33096   0.86180   0.16484   1.000
    Ts121   Ts   0.34073   0.88697   0.20946   1.000
    Ts122   Ts   0.31046   0.90140   0.16011   1.000
    Ts123   Ts   0.28090   0.86731   0.17270   1.000
    Ts124   Ts   0.29213   0.89810   0.22269   1.000
    Ts125   Ts   0.30378   0.86156   0.23044   1.000
    Ts126   Ts   0.83095   0.36180   0.16484   1.000
    Ts127   Ts   0.84073   0.38697   0.20946   1.000
    Ts128   Ts   0.81046   0.40141   0.16011   1.000
    Ts129   Ts   0.78090   0.36732   0.17270   1.000
    Ts130   Ts   0.79213   0.39810   0.22269   1.000
    Ts131   Ts   0.80378   0.36156   0.23044   1.000
    Ts132   Ts   0.83096   0.86180   0.16484   1.000
    Ts133   Ts   0.84073   0.88697   0.20946   1.000
    Ts134   Ts   0.81047   0.90140   0.16011   1.000
    Ts135   Ts   0.78090   0.86731   0.17270   1.000
    Ts136   Ts   0.79213   0.89810   0.22269   1.000
    Ts137   Ts   0.80379   0.86156   0.23044   1.000
    Ts138   Ts   0.05570   0.11457   0.83161   1.000
    Ts139   Ts   0.02094   0.14325   0.84209   1.000
    Ts140   Ts   0.06547   0.13974   0.87609   1.000
    Ts141   Ts   0.00933   0.10671   0.84983   1.000
    Ts142   Ts   0.01935   0.13403   0.90680   1.000
    Ts143   Ts   0.04940   0.09895   0.89257   1.000
    Ts144   Ts   0.05571   0.61457   0.83161   1.000
    Ts145   Ts   0.02095   0.64324   0.84209   1.000
    Ts146   Ts   0.06548   0.63974   0.87609   1.000
    Ts147   Ts   0.00933   0.60670   0.84983   1.000
    Ts148   Ts   0.01936   0.63403   0.90680   1.000
    Ts149   Ts   0.04940   0.59895   0.89257   1.000
    Ts150   Ts   0.55570   0.11457   0.83161   1.000
    Ts151   Ts   0.52094   0.14325   0.84209   1.000
    Ts152   Ts   0.56548   0.13974   0.87609   1.000
    Ts153   Ts   0.50933   0.10671   0.84983   1.000
    Ts154   Ts   0.51936   0.13403   0.90680   1.000
    Ts155   Ts   0.54940   0.09895   0.89257   1.000
    Ts156   Ts   0.55571   0.61457   0.83161   1.000
    Ts157   Ts   0.52095   0.64324   0.84209   1.000
    Ts158   Ts   0.56548   0.63974   0.87609   1.000
    Ts159   Ts   0.50933   0.60670   0.84983   1.000
    Ts160   Ts   0.51936   0.63403   0.90680   1.000
    Ts161   Ts   0.54941   0.59895   0.89257   1.000
    Ts162   Ts   0.41906   0.11175   0.66501   1.000
    Ts163   Ts   0.46912   0.11729   0.67272   1.000
    Ts164   Ts   0.45785   0.14807   0.72271   1.000
    Ts165   Ts   0.44624   0.11153   0.73045   1.000
    Ts166   Ts   0.40927   0.13691   0.70948   1.000
    Ts167   Ts   0.43954   0.15136   0.66012   1.000
    Ts168   Ts   0.41907   0.61175   0.66501   1.000
    Ts169   Ts   0.46913   0.61728   0.67272   1.000
    Ts170   Ts   0.45786   0.64807   0.72271   1.000
    Ts171   Ts   0.44624   0.61153   0.73045   1.000
    Ts172   Ts   0.40928   0.63690   0.70948   1.000
    Ts173   Ts   0.43955   0.65136   0.66012   1.000
    Ts174   Ts   0.91907   0.11175   0.66501   1.000
    Ts175   Ts   0.96912   0.11729   0.67272   1.000
    Ts176   Ts   0.95786   0.14807   0.72271   1.000
    Ts177   Ts   0.94624   0.11153   0.73045   1.000
    Ts178   Ts   0.90927   0.13691   0.70948   1.000
    Ts179   Ts   0.93954   0.15136   0.66012   1.000
    Ts180   Ts   0.91907   0.61175   0.66501   1.000
    Ts181   Ts   0.96913   0.61728   0.67272   1.000
    Ts182   Ts   0.95786   0.64807   0.72271   1.000
    Ts183   Ts   0.94625   0.61153   0.73045   1.000
    Ts184   Ts   0.90928   0.63690   0.70948   1.000
    Ts185   Ts   0.93955   0.65136   0.66012   1.000
    Ts186   Ts   0.31549   0.11021   0.62390   1.000
    Ts187   Ts   0.30569   0.13537   0.66837   1.000
    Ts188   Ts   0.27097   0.10672   0.65789   1.000
    Ts189   Ts   0.25932   0.14326   0.65014   1.000
    Ts190   Ts   0.26935   0.11595   0.59319   1.000
    Ts191   Ts   0.29940   0.15100   0.60738   1.000
    Ts192   Ts   0.31549   0.61021   0.62390   1.000
    Ts193   Ts   0.30570   0.63536   0.66837   1.000
    Ts194   Ts   0.27097   0.60672   0.65789   1.000
    Ts195   Ts   0.25932   0.64326   0.65014   1.000
    Ts196   Ts   0.26935   0.61595   0.59319   1.000
    Ts197   Ts   0.29940   0.65100   0.60738   1.000
    Ts198   Ts   0.81549   0.11021   0.62390   1.000
    Ts199   Ts   0.80570   0.13537   0.66837   1.000
    Ts200   Ts   0.77097   0.10672   0.65789   1.000
    Ts201   Ts   0.75932   0.14326   0.65014   1.000
    Ts202   Ts   0.76935   0.11595   0.59319   1.000
    Ts203   Ts   0.79940   0.15100   0.60738   1.000
    Ts204   Ts   0.81549   0.61021   0.62390   1.000
    Ts205   Ts   0.80570   0.63536   0.66837   1.000
    Ts206   Ts   0.77098   0.60672   0.65789   1.000
    Ts207   Ts   0.75932   0.64326   0.65014   1.000
    Ts208   Ts   0.76936   0.61595   0.59319   1.000
    Ts209   Ts   0.79940   0.65100   0.60738   1.000
    Ts210   Ts   0.15929   0.11302   0.79051   1.000
    Ts211   Ts   0.16906   0.13819   0.83500   1.000
    Ts212   Ts   0.18955   0.09859   0.83986   1.000
    Ts213   Ts   0.21911   0.13268   0.82727   1.000
    Ts214   Ts   0.20789   0.10189   0.77728   1.000
    Ts215   Ts   0.19623   0.13843   0.76953   1.000
    Ts216   Ts   0.15929   0.61302   0.79051   1.000
    Ts217   Ts   0.16906   0.63819   0.83500   1.000
    Ts218   Ts   0.18956   0.59858   0.83986   1.000
    Ts219   Ts   0.21912   0.63267   0.82727   1.000
    Ts220   Ts   0.20789   0.60189   0.77728   1.000
    Ts221   Ts   0.19624   0.63843   0.76953   1.000
    Ts222   Ts   0.65929   0.11302   0.79051   1.000
    Ts223   Ts   0.66906   0.13819   0.83500   1.000
    Ts224   Ts   0.68955   0.09859   0.83986   1.000
    Ts225   Ts   0.71912   0.13268   0.82727   1.000
    Ts226   Ts   0.70789   0.10189   0.77728   1.000
    Ts227   Ts   0.69623   0.13843   0.76953   1.000
    Ts228   Ts   0.65929   0.61302   0.79051   1.000
    Ts229   Ts   0.66907   0.63819   0.83500   1.000
    Ts230   Ts   0.68956   0.59858   0.83986   1.000
    Ts231   Ts   0.71912   0.63267   0.82727   1.000
    Ts232   Ts   0.70789   0.60189   0.77728   1.000
    Ts233   Ts   0.69624   0.63843   0.76953   1.000
    Ts234   Ts   0.00008   0.24329   0.04600   1.000
    Ts235   Ts   0.96549   0.25331   0.00015   1.000
    Ts236   Ts   0.00466   0.28098   0.00676   1.000
    Ts237   Ts   0.99993   0.25670   0.95386   1.000
    Ts238   Ts   0.03451   0.24669   0.99984   1.000
    Ts239   Ts   0.99534   0.21901   0.99323   1.000
    Ts240   Ts   0.43454   0.36025   0.12373   1.000
    Ts241   Ts   0.44431   0.38542   0.16835   1.000
    Ts242   Ts   0.47907   0.35675   0.15787   1.000
    Ts243   Ts   0.49068   0.39328   0.15012   1.000
    Ts244   Ts   0.48066   0.36596   0.09316   1.000
    Ts245   Ts   0.45061   0.40104   0.10738   1.000
    Ts246   Ts   0.00009   0.74329   0.04600   1.000
    Ts247   Ts   0.96550   0.75331   0.00015   1.000
    Ts248   Ts   0.00467   0.78098   0.00676   1.000
    Ts249   Ts   0.99993   0.75670   0.95386   1.000
    Ts250   Ts   0.03452   0.74668   0.99984   1.000
    Ts251   Ts   0.99535   0.71901   0.99323   1.000
    Ts252   Ts   0.46549   0.25331   0.00015   1.000
    Ts253   Ts   0.50008   0.24329   0.04600   1.000
    Ts254   Ts   0.50467   0.28098   0.00676   1.000
    Ts255   Ts   0.49993   0.25670   0.95386   1.000
    Ts256   Ts   0.53452   0.24669   0.99984   1.000
    Ts257   Ts   0.49535   0.21901   0.99323   1.000
    Ts258   Ts   0.50009   0.74329   0.04600   1.000
    Ts259   Ts   0.46550   0.75331   0.00015   1.000
    Ts260   Ts   0.50467   0.78098   0.00676   1.000
    Ts261   Ts   0.49993   0.75670   0.95386   1.000
    Ts262   Ts   0.53452   0.74668   0.99984   1.000
    Ts263   Ts   0.49535   0.71901   0.99323   1.000
    Ts264   Ts   0.24993   0.99329   0.54609   1.000
    Ts265   Ts   0.28452   0.00329   0.50017   1.000
    Ts266   Ts   0.25008   0.00671   0.45388   1.000
    Ts267   Ts   0.21548   0.99670   0.49979   1.000
    Ts268   Ts   0.25467   0.96901   0.49321   1.000
    Ts269   Ts   0.24534   0.03098   0.50677   1.000
    Ts270   Ts   0.25008   0.50670   0.45388   1.000
    Ts271   Ts   0.21548   0.49670   0.49979   1.000
    Ts272   Ts   0.25467   0.46901   0.49321   1.000
    Ts273   Ts   0.24993   0.49329   0.54609   1.000
    Ts274   Ts   0.28453   0.50329   0.50017   1.000
    Ts275   Ts   0.24534   0.53098   0.50677   1.000
    Ts276   Ts   0.74993   0.99329   0.54609   1.000
    Ts277   Ts   0.75008   0.00671   0.45388   1.000
    Ts278   Ts   0.71549   0.99670   0.49979   1.000
    Ts279   Ts   0.75467   0.96901   0.49321   1.000
    Ts280   Ts   0.78453   0.00329   0.50017   1.000
    Ts281   Ts   0.74534   0.03098   0.50677   1.000
    Ts282   Ts   0.74993   0.49329   0.54609   1.000
    Ts283   Ts   0.75009   0.50670   0.45388   1.000
    Ts284   Ts   0.71549   0.49670   0.49979   1.000
    Ts285   Ts   0.75468   0.46901   0.49321   1.000
    Ts286   Ts   0.78453   0.50329   0.50017   1.000
    Ts287   Ts   0.74534   0.53098   0.50677   1.000
    Ts288   Ts   0.01848   0.00326   0.03937   1.000
    Ts289   Ts   0.01847   0.97511   0.98703   1.000
    Ts290   Ts   0.97462   0.98272   0.02098   1.000
    Ts291   Ts   0.98153   0.99673   0.96062   1.000
    Ts292   Ts   0.98154   0.02489   0.01296   1.000
    Ts293   Ts   0.02539   0.01727   0.97901   1.000
    Ts294   Ts   0.01848   0.50326   0.03937   1.000
    Ts295   Ts   0.01847   0.47511   0.98703   1.000
    Ts296   Ts   0.97462   0.48272   0.02098   1.000
    Ts297   Ts   0.98152   0.49673   0.96062   1.000
    Ts298   Ts   0.98154   0.52488   0.01296   1.000
    Ts299   Ts   0.02539   0.51727   0.97901   1.000
    Ts300   Ts   0.51848   0.00326   0.03937   1.000
    Ts301   Ts   0.51847   0.97511   0.98703   1.000
    Ts302   Ts   0.47462   0.98272   0.02098   1.000
    Ts303   Ts   0.48153   0.99673   0.96062   1.000
    Ts304   Ts   0.48154   0.02489   0.01296   1.000
    Ts305   Ts   0.52539   0.01727   0.97901   1.000
    Ts306   Ts   0.51849   0.50326   0.03937   1.000
    Ts307   Ts   0.51847   0.47511   0.98703   1.000
    Ts308   Ts   0.47462   0.48272   0.02098   1.000
    Ts309   Ts   0.48153   0.49673   0.96062   1.000
    Ts310   Ts   0.48154   0.52488   0.01296   1.000
    Ts311   Ts   0.52540   0.51727   0.97901   1.000
    Ts312   Ts   0.26848   0.24673   0.46060   1.000
    Ts313   Ts   0.26847   0.27487   0.51293   1.000
    Ts314   Ts   0.22462   0.26729   0.47902   1.000
    Ts315   Ts   0.23153   0.25327   0.53938   1.000
    Ts316   Ts   0.23154   0.22513   0.48703   1.000
    Ts317   Ts   0.27538   0.23270   0.52096   1.000
    Ts318   Ts   0.26849   0.74672   0.46060   1.000
    Ts319   Ts   0.26847   0.77486   0.51293   1.000
    Ts320   Ts   0.22463   0.76729   0.47902   1.000
    Ts321   Ts   0.23153   0.75326   0.53938   1.000
    Ts322   Ts   0.23154   0.72512   0.48703   1.000
    Ts323   Ts   0.27539   0.73270   0.52096   1.000
    Ts324   Ts   0.76849   0.24673   0.46060   1.000
    Ts325   Ts   0.76847   0.27487   0.51293   1.000
    Ts326   Ts   0.72463   0.26729   0.47902   1.000
    Ts327   Ts   0.73153   0.25327   0.53938   1.000
    Ts328   Ts   0.73154   0.22513   0.48703   1.000
    Ts329   Ts   0.77539   0.23270   0.52096   1.000
    Ts330   Ts   0.76849   0.74672   0.46060   1.000
    Ts331   Ts   0.76848   0.77486   0.51293   1.000
    Ts332   Ts   0.72463   0.76729   0.47902   1.000
    Ts333   Ts   0.73153   0.75326   0.53938   1.000
    Ts334   Ts   0.73155   0.72512   0.48703   1.000
    Ts335   Ts   0.77539   0.73270   0.52096   1.000
loop_
    _geom_bond_atom_site_label_1
    _geom_bond_atom_site_label_2
    _geom_bond_distance
    _geom_bond_site_symmetry_2
    _ccdc_geom_bond_type
    Zn0    Ts48      0.72020      .   S
    Zn0    Ts49      0.72100      .   S
    Zn0    Ts50      0.71192      .   S
    Zn0    Ts51      0.71632      .   S
    Zn0    Ts52      0.68701      .   S
    Zn0    Ts53      0.69699      .   S
    Zn1    Ts54      0.72020      .   S
    Zn1    Ts55      0.72100      .   S
    Zn1    Ts56      0.71189      .   S
    Zn1    Ts57      0.71628      .   S
    Zn1    Ts58      0.68699      .   S
    Zn1    Ts59      0.69700      .   S
    Zn2    Ts60      0.72020      .   S
    Zn2    Ts61      0.72100      .   S
    Zn2    Ts62      0.71190      .   S
    Zn2    Ts63      0.71629      .   S
    Zn2    Ts64      0.68699      .   S
    Zn2    Ts65      0.69699      .   S
    Zn3    Ts66      0.68659      .   S
    Zn3    Ts67      0.70517      .   S
    Zn3    Ts68      0.72975      .   S
    Zn3    Ts69      0.71940      .   S
    Zn3    Ts70      0.72488      .   S
    Zn3    Ts71      0.69136      .   S
    Zn4    Ts72      0.68659      .   S
    Zn4    Ts73      0.70517      .   S
    Zn4    Ts74      0.72975      .   S
    Zn4    Ts75      0.71940      .   S
    Zn4    Ts76      0.72489      .   S
    Zn4    Ts77      0.69136      .   S
    Zn5    Ts78      0.68663      .   S
    Zn5    Ts79      0.70517      .   S
    Zn5    Ts80      0.72974      .   S
    Zn5    Ts81      0.71941      .   S
    Zn5    Ts82      0.72488      .   S
    Zn5    Ts83      0.69136      .   S
    Zn6    Ts84      0.68663      .   S
    Zn6    Ts85      0.70517      .   S
    Zn6    Ts86      0.72975      .   S
    Zn6    Ts87      0.71940      .   S
    Zn6    Ts88      0.72489      .   S
    Zn6    Ts89      0.69136      .   S
    Zn7    Ts90      0.72087      .   S
    Zn7    Ts91      0.71201      .   S
    Zn7    Ts92      0.71984      .   S
    Zn7    Ts93      0.71611      .   S
    Zn7    Ts94      0.68711      .   S
    Zn7    Ts95      0.69719      .   S
    Zn8    Ts96      0.72088      .   S
    Zn8    Ts97      0.71201      .   S
    Zn8    Ts98      0.71985      .   S
    Zn8    Ts99      0.71610      .   S
    Zn8    Ts100     0.68711      .   S
    Zn8    Ts101     0.69719      .   S
    Zn9    Ts102     0.72087      .   S
    Zn9    Ts103     0.71201      .   S
    Zn9    Ts104     0.71985      .   S
    Zn9    Ts105     0.71610      .   S
    Zn9    Ts106     0.68711      .   S
    Zn9    Ts107     0.69719      .   S
    Zn10   Ts108     0.72087      .   S
    Zn10   Ts109     0.71201      .   S
    Zn10   Ts110     0.71984      .   S
    Zn10   Ts111     0.71611      .   S
    Zn10   Ts112     0.68711      .   S
    Zn10   Ts113     0.69719      .   S
    Zn11   Ts114     0.72381      .   S
    Zn11   Ts115     0.72086      .   S
    Zn11   Ts116     0.68912      .   S
    Zn11   Ts117     0.68537      .   S
    Zn11   Ts118     0.70733      .   S
    Zn11   Ts119     0.73265      .   S
    Zn12   Ts120     0.72381      .   S
    Zn12   Ts121     0.72086      .   S
    Zn12   Ts122     0.68912      .   S
    Zn12   Ts123     0.68537      .   S
    Zn12   Ts124     0.70732      .   S
    Zn12   Ts125     0.73265      .   S
    Zn13   Ts126     0.72381      .   S
    Zn13   Ts127     0.72086      .   S
    Zn13   Ts128     0.68912      .   S
    Zn13   Ts129     0.68537      .   S
    Zn13   Ts130     0.70732      .   S
    Zn13   Ts131     0.73265      .   S
    Zn14   Ts132     0.72381      .   S
    Zn14   Ts133     0.72086      .   S
    Zn14   Ts134     0.68912      .   S
    Zn14   Ts135     0.68537      .   S
    Zn14   Ts136     0.70733      .   S
    Zn14   Ts137     0.73265      .   S
    Zn15   Ts138     0.72093      .   S
    Zn15   Ts139     0.71183      .   S
    Zn15   Ts140     0.72000      .   S
    Zn15   Ts141     0.71624      .   S
    Zn15   Ts142     0.68707      .   S
    Zn15   Ts143     0.69705      .   S
    Zn16   Ts144     0.72093      .   S
    Zn16   Ts145     0.71184      .   S
    Zn16   Ts146     0.72000      .   S
    Zn16   Ts147     0.71624      .   S
    Zn16   Ts148     0.68707      .   S
    Zn16   Ts149     0.69704      .   S
    Zn17   Ts150     0.72093      .   S
    Zn17   Ts151     0.71185      .   S
    Zn17   Ts152     0.72000      .   S
    Zn17   Ts153     0.71628      .   S
    Zn17   Ts154     0.68709      .   S
    Zn17   Ts155     0.69705      .   S
    Zn18   Ts156     0.72093      .   S
    Zn18   Ts157     0.71186      .   S
    Zn18   Ts158     0.72000      .   S
    Zn18   Ts159     0.71628      .   S
    Zn18   Ts160     0.68709      .   S
    Zn18   Ts161     0.69704      .   S
    Zn19   Ts162     0.72307      .   S
    Zn19   Ts163     0.68527      .   S
    Zn19   Ts164     0.70738      .   S
    Zn19   Ts165     0.73251      .   S
    Zn19   Ts166     0.72067      .   S
    Zn19   Ts167     0.68900      .   S
    Zn20   Ts168     0.72307      .   S
    Zn20   Ts169     0.68527      .   S
    Zn20   Ts170     0.70739      .   S
    Zn20   Ts171     0.73251      .   S
    Zn20   Ts172     0.72067      .   S
    Zn20   Ts173     0.68900      .   S
    Zn21   Ts174     0.72307      .   S
    Zn21   Ts175     0.68524      .   S
    Zn21   Ts176     0.70738      .   S
    Zn21   Ts177     0.73251      .   S
    Zn21   Ts178     0.72067      .   S
    Zn21   Ts179     0.68900      .   S
    Zn22   Ts180     0.72307      .   S
    Zn22   Ts181     0.68523      .   S
    Zn22   Ts182     0.70738      .   S
    Zn22   Ts183     0.73251      .   S
    Zn22   Ts184     0.72067      .   S
    Zn22   Ts185     0.68900      .   S
    Zn23   Ts186     0.71985      .   S
    Zn23   Ts187     0.72087      .   S
    Zn23   Ts188     0.71201      .   S
    Zn23   Ts189     0.71611      .   S
    Zn23   Ts190     0.68711      .   S
    Zn23   Ts191     0.69719      .   S
    Zn24   Ts192     0.71985      .   S
    Zn24   Ts193     0.72088      .   S
    Zn24   Ts194     0.71201      .   S
    Zn24   Ts195     0.71610      .   S
    Zn24   Ts196     0.68711      .   S
    Zn24   Ts197     0.69719      .   S
    Zn25   Ts198     0.71984      .   S
    Zn25   Ts199     0.72087      .   S
    Zn25   Ts200     0.71202      .   S
    Zn25   Ts201     0.71611      .   S
    Zn25   Ts202     0.68711      .   S
    Zn25   Ts203     0.69718      .   S
    Zn26   Ts204     0.71985      .   S
    Zn26   Ts205     0.72087      .   S
    Zn26   Ts206     0.71201      .   S
    Zn26   Ts207     0.71611      .   S
    Zn26   Ts208     0.68711      .   S
    Zn26   Ts209     0.69719      .   S
    Zn27   Ts210     0.72085      .   S
    Zn27   Ts211     0.72278      .   S
    Zn27   Ts212     0.68915      .   S
    Zn27   Ts213     0.68537      .   S
    Zn27   Ts214     0.70733      .   S
    Zn27   Ts215     0.73265      .   S
    Zn28   Ts216     0.72086      .   S
    Zn28   Ts217     0.72279      .   S
    Zn28   Ts218     0.68915      .   S
    Zn28   Ts219     0.68537      .   S
    Zn28   Ts220     0.70732      .   S
    Zn28   Ts221     0.73265      .   S
    Zn29   Ts222     0.72086      .   S
    Zn29   Ts223     0.72279      .   S
    Zn29   Ts224     0.68915      .   S
    Zn29   Ts225     0.68537      .   S
    Zn29   Ts226     0.70732      .   S
    Zn29   Ts227     0.73265      .   S
    Zn30   Ts228     0.72086      .   S
    Zn30   Ts229     0.72279      .   S
    Zn30   Ts230     0.68915      .   S
    Zn30   Ts231     0.68537      .   S
    Zn30   Ts232     0.70732      .   S
    Zn30   Ts233     0.73265      .   S
    Zn31   Ts234     0.70483      .   S
    Zn31   Ts235     0.70110  1_455   S
    Zn31   Ts236     0.72693      .   S
    Zn31   Ts237     0.70686  1_454   S
    Zn31   Ts238     0.70115  1_554   S
    Zn31   Ts239     0.72697  1_454   S
    Zn32   Ts240     0.72019      .   S
    Zn32   Ts241     0.72100      .   S
    Zn32   Ts242     0.71191      .   S
    Zn32   Ts243     0.71632      .   S
    Zn32   Ts244     0.68701      .   S
    Zn32   Ts245     0.69700      .   S
    Zn33   Ts246     0.70484      .   S
    Zn33   Ts247     0.70110  1_455   S
    Zn33   Ts248     0.72692      .   S
    Zn33   Ts249     0.70686  1_454   S
    Zn33   Ts250     0.70115  1_554   S
    Zn33   Ts251     0.72697  1_454   S
    Zn34   Ts252     0.70115      .   S
    Zn34   Ts253     0.70483      .   S
    Zn34   Ts254     0.72693      .   S
    Zn34   Ts255     0.70686  1_554   S
    Zn34   Ts256     0.70115  1_554   S
    Zn34   Ts257     0.72698  1_554   S
    Zn35   Ts258     0.70484      .   S
    Zn35   Ts259     0.70114      .   S
    Zn35   Ts260     0.72692      .   S
    Zn35   Ts261     0.70686  1_554   S
    Zn35   Ts262     0.70115  1_554   S
    Zn35   Ts263     0.72698  1_554   S
    Zn36   Ts264     0.70637      .   S
    Zn36   Ts265     0.70141  1_565   S
    Zn36   Ts266     0.70650  1_565   S
    Zn36   Ts267     0.70136      .   S
    Zn36   Ts268     0.72695      .   S
    Zn36   Ts269     0.72688  1_565   S
    Zn37   Ts270     0.70650      .   S
    Zn37   Ts271     0.70141      .   S
    Zn37   Ts272     0.72688      .   S
    Zn37   Ts273     0.70636      .   S
    Zn37   Ts274     0.70142      .   S
    Zn37   Ts275     0.72688      .   S
    Zn38   Ts276     0.70637      .   S
    Zn38   Ts277     0.70650  1_565   S
    Zn38   Ts278     0.70136      .   S
    Zn38   Ts279     0.72695      .   S
    Zn38   Ts280     0.70141  1_565   S
    Zn38   Ts281     0.72688  1_565   S
    Zn39   Ts282     0.70636      .   S
    Zn39   Ts283     0.70650      .   S
    Zn39   Ts284     0.70141      .   S
    Zn39   Ts285     0.72688      .   S
    Zn39   Ts286     0.70141      .   S
    Zn39   Ts287     0.72688      .   S
    Zn40   Ts288     0.69744      .   S
    Zn40   Ts289     0.70866  1_544   S
    Zn40   Ts290     0.72449  1_445   S
    Zn40   Ts291     0.69752  1_444   S
    Zn40   Ts292     0.70850  1_455   S
    Zn40   Ts293     0.72459  1_554   S
    Zn41   Ts294     0.69746      .   S
    Zn41   Ts295     0.70860  1_554   S
    Zn41   Ts296     0.72448  1_455   S
    Zn41   Ts297     0.69753  1_454   S
    Zn41   Ts298     0.70848  1_455   S
    Zn41   Ts299     0.72461  1_554   S
    Zn42   Ts300     0.69744      .   S
    Zn42   Ts301     0.70866  1_544   S
    Zn42   Ts302     0.72453  1_545   S
    Zn42   Ts303     0.69754  1_544   S
    Zn42   Ts304     0.70852      .   S
    Zn42   Ts305     0.72458  1_554   S
    Zn43   Ts306     0.69744      .   S
    Zn43   Ts307     0.70858  1_554   S
    Zn43   Ts308     0.72454      .   S
    Zn43   Ts309     0.69757  1_554   S
    Zn43   Ts310     0.70853      .   S
    Zn43   Ts311     0.72459  1_554   S
    Zn44   Ts312     0.69767      .   S
    Zn44   Ts313     0.70854      .   S
    Zn44   Ts314     0.72424      .   S
    Zn44   Ts315     0.69763      .   S
    Zn44   Ts316     0.70862      .   S
    Zn44   Ts317     0.72422      .   S
    Zn45   Ts318     0.69767      .   S
    Zn45   Ts319     0.70853      .   S
    Zn45   Ts320     0.72424      .   S
    Zn45   Ts321     0.69763      .   S
    Zn45   Ts322     0.70862      .   S
    Zn45   Ts323     0.72422      .   S
    Zn46   Ts324     0.69767      .   S
    Zn46   Ts325     0.70854      .   S
    Zn46   Ts326     0.72424      .   S
    Zn46   Ts327     0.69763      .   S
    Zn46   Ts328     0.70862      .   S
    Zn46   Ts329     0.72421      .   S
    Zn47   Ts330     0.69767      .   S
    Zn47   Ts331     0.70853      .   S
    Zn47   Ts332     0.72424      .   S
    Zn47   Ts333     0.69763      .   S
    Zn47   Ts334     0.70862      .   S
    Zn47   Ts335     0.72422      .   S
