# CIF file generated by openbabel 2.4.90, see http://openbabel.sf.net
data_I
_chemical_name_common ''
_cell_length_a 20.196
_cell_length_b 23.101
_cell_length_c 14.88
_cell_angle_alpha 91.161
_cell_angle_beta 90
_cell_angle_gamma 89.958
_space_group_name_H-M_alt 'P 1'
_space_group_name_Hall 'P 1'
loop_
    _symmetry_equiv_pos_as_xyz
    x,y,z
loop_
    _atom_site_label
    _atom_site_type_symbol
    _atom_site_fract_x
    _atom_site_fract_y
    _atom_site_fract_z
    _atom_site_occupancy
    C0      C    0.46399   0.37747   0.12960   1.000
    C1      C    0.46400   0.87747   0.12960   1.000
    C2      C    0.96400   0.37747   0.12960   1.000
    C3      C    0.96400   0.87747   0.12960   1.000
    C4      C    0.05862   0.37023   0.30800   1.000
    C5      C    0.05862   0.87023   0.30800   1.000
    C6      C    0.55862   0.37023   0.30800   1.000
    C7      C    0.55863   0.87023   0.30800   1.000
    C8      C    0.21399   0.37255   0.37035   1.000
    C9      C    0.21399   0.87254   0.37035   1.000
    C10     C    0.71399   0.37255   0.37035   1.000
    C11     C    0.71400   0.87254   0.37035   1.000
    C12     C    0.30861   0.37979   0.19126   1.000
    C13     C    0.30862   0.87979   0.19126   1.000
    C14     C    0.80862   0.37979   0.19126   1.000
    C15     C    0.80862   0.87979   0.19126   1.000
    C16     C    0.03602   0.12252   0.87035   1.000
    C17     C    0.03602   0.62252   0.87035   1.000
    C18     C    0.53602   0.12252   0.87035   1.000
    C19     C    0.53603   0.62252   0.87035   1.000
    C20     C    0.44139   0.12976   0.69128   1.000
    C21     C    0.44139   0.62976   0.69128   1.000
    C22     C    0.94139   0.12976   0.69128   1.000
    C23     C    0.94140   0.62976   0.69128   1.000
    C24     C    0.28602   0.12745   0.62962   1.000
    C25     C    0.28603   0.62744   0.62962   1.000
    C26     C    0.78603   0.12745   0.62962   1.000
    C27     C    0.78603   0.62744   0.62962   1.000
    C28     C    0.19139   0.12020   0.80871   1.000
    C29     C    0.19140   0.62020   0.80871   1.000
    C30     C    0.69140   0.12020   0.80871   1.000
    C31     C    0.69140   0.62020   0.80871   1.000
    C32     C    0.00000   0.25000   0.00000   1.000
    C33     C    0.00001   0.74999   0.00000   1.000
    C34     C    0.50001   0.25000   0.00000   1.000
    C35     C    0.50001   0.74999   0.00000   1.000
    C36     C    0.25000   1.00000   0.49999   1.000
    C37     C    0.25001   0.49999   0.49999   1.000
    C38     C    0.75001   1.00000   0.49999   1.000
    C39     C    0.75001   0.49999   0.49999   1.000
    C40     C    0.00000   0.00000   0.00000   1.000
    C41     C    0.00000   0.50000   0.00000   1.000
    C42     C    0.50000   0.00000   0.00000   1.000
    C43     C    0.50001   0.50000   0.00000   1.000
    C44     C    0.25000   0.25000   0.49999   1.000
    C45     C    0.25001   0.74999   0.49999   1.000
    C46     C    0.75001   0.25000   0.49999   1.000
    C47     C    0.75001   0.74999   0.49999   1.000
    C48     C    0.37873   0.42882   0.37158   1.000
    C49     C    0.37873   0.92881   0.37158   1.000
    C50     C    0.87873   0.42882   0.37158   1.000
    C51     C    0.87874   0.92881   0.37158   1.000
    C52     C    0.02516   0.23713   0.26998   1.000
    C53     C    0.02516   0.73713   0.26998   1.000
    C54     C    0.52516   0.23713   0.26998   1.000
    C55     C    0.52516   0.73713   0.26998   1.000
    C56     C    0.30464   0.28108   0.04446   1.000
    C57     C    0.30465   0.78108   0.04446   1.000
    C58     C    0.80465   0.28108   0.04446   1.000
    C59     C    0.80465   0.78108   0.04446   1.000
    C60     C    0.10449   0.49023   0.23166   1.000
    C61     C    0.10450   0.99023   0.23166   1.000
    C62     C    0.60449   0.49023   0.23166   1.000
    C63     C    0.60450   0.99023   0.23166   1.000
    C64     C    0.08156   0.34466   0.92001   1.000
    C65     C    0.08157   0.84466   0.92001   1.000
    C66     C    0.58157   0.34466   0.92001   1.000
    C67     C    0.58157   0.84466   0.92001   1.000
    C68     C    0.35420   0.50165   0.01268   1.000
    C69     C    0.35421   0.00000   0.01268   1.000
    C70     C    0.85420   0.50165   0.01268   1.000
    C71     C    0.85421   0.00000   0.01268   1.000
    C72     C    0.12880   0.32118   0.12842   1.000
    C73     C    0.12880   0.82118   0.12842   1.000
    C74     C    0.62880   0.32118   0.12842   1.000
    C75     C    0.62881   0.82118   0.12842   1.000
    C76     C    0.27501   0.01289   0.23001   1.000
    C77     C    0.27502   0.51289   0.23001   1.000
    C78     C    0.77502   0.01289   0.23001   1.000
    C79     C    0.77502   0.51289   0.23001   1.000
    C80     C    0.05463   0.46925   0.45520   1.000
    C81     C    0.05463   0.96924   0.45520   1.000
    C82     C    0.55463   0.46925   0.45520   1.000
    C83     C    0.55464   0.96924   0.45520   1.000
    C84     C    0.35450   0.25969   0.26827   1.000
    C85     C    0.35451   0.75969   0.26827   1.000
    C86     C    0.85451   0.25969   0.26827   1.000
    C87     C    0.85451   0.75969   0.26827   1.000
    C88     C    0.33165   0.40525   0.57981   1.000
    C89     C    0.33166   0.90524   0.57981   1.000
    C90     C    0.83166   0.40525   0.57981   1.000
    C91     C    0.83166   0.90524   0.57981   1.000
    C92     C    0.10425   0.24855   0.48758   1.000
    C93     C    0.10425   0.74855   0.48758   1.000
    C94     C    0.60425   0.24855   0.48758   1.000
    C95     C    0.60426   0.74855   0.48758   1.000
    C96     C    0.12128   0.07117   0.62839   1.000
    C97     C    0.12128   0.57117   0.62839   1.000
    C98     C    0.62128   0.07117   0.62839   1.000
    C99     C    0.62129   0.57117   0.62839   1.000
    C100    C    0.47485   0.26286   0.72999   1.000
    C101    C    0.47486   0.76285   0.72999   1.000
    C102    C    0.97486   0.26286   0.72999   1.000
    C103    C    0.97486   0.76285   0.72999   1.000
    C104    C    0.19536   0.21891   0.95551   1.000
    C105    C    0.19537   0.71891   0.95550   1.000
    C106    C    0.69537   0.21891   0.95550   1.000
    C107    C    0.69537   0.71891   0.95550   1.000
    C108    C    0.39552   0.00976   0.76831   1.000
    C109    C    0.39552   0.50976   0.76831   1.000
    C110    C    0.89552   0.00976   0.76831   1.000
    C111    C    0.89553   0.50976   0.76831   1.000
    C112    C    0.41845   0.15533   0.07990   1.000
    C113    C    0.41845   0.65533   0.07990   1.000
    C114    C    0.91845   0.15533   0.07990   1.000
    C115    C    0.91845   0.65533   0.07990   1.000
    C116    C    0.14581   0.99834   0.98729   1.000
    C117    C    0.14581   0.49834   0.98729   1.000
    C118    C    0.64581   0.99834   0.98729   1.000
    C119    C    0.64582   0.49834   0.98729   1.000
    C120    C    0.37121   0.17881   0.87155   1.000
    C121    C    0.37121   0.67881   0.87155   1.000
    C122    C    0.87121   0.17881   0.87155   1.000
    C123    C    0.87122   0.67881   0.87155   1.000
    C124    C    0.22500   0.48710   0.76996   1.000
    C125    C    0.22500   0.98710   0.76996   1.000
    C126    C    0.72500   0.48710   0.76996   1.000
    C127    C    0.72500   0.98710   0.76996   1.000
    C128    C    0.44538   0.03075   0.54477   1.000
    C129    C    0.44539   0.53074   0.54477   1.000
    C130    C    0.94539   0.03075   0.54477   1.000
    C131    C    0.94539   0.53074   0.54477   1.000
    C132    C    0.14550   0.24030   0.73170   1.000
    C133    C    0.14551   0.74030   0.73170   1.000
    C134    C    0.64551   0.24030   0.73170   1.000
    C135    C    0.64551   0.74030   0.73170   1.000
    C136    C    0.16836   0.09475   0.42016   1.000
    C137    C    0.16836   0.59474   0.42016   1.000
    C138    C    0.66836   0.09475   0.42016   1.000
    C139    C    0.66836   0.59474   0.42016   1.000
    C140    C    0.39576   0.25144   0.51239   1.000
    C141    C    0.39576   0.75144   0.51239   1.000
    C142    C    0.89576   0.25144   0.51239   1.000
    C143    C    0.89577   0.75144   0.51239   1.000
    C144    C    0.41939   0.41270   0.32831   1.000
    C145    C    0.41939   0.91270   0.32831   1.000
    C146    C    0.91939   0.41270   0.32831   1.000
    C147    C    0.91940   0.91270   0.32831   1.000
    C148    C    0.01174   0.25970   0.20772   1.000
    C149    C    0.01175   0.75970   0.20772   1.000
    C150    C    0.51175   0.25970   0.20772   1.000
    C151    C    0.51175   0.75970   0.20772   1.000
    C152    C    0.35853   0.28839   0.05127   1.000
    C153    C    0.35853   0.78838   0.05127   1.000
    C154    C    0.85853   0.28839   0.05127   1.000
    C155    C    0.85854   0.78838   0.05127   1.000
    C156    C    0.06823   0.47573   0.18010   1.000
    C157    C    0.06824   0.97572   0.18010   1.000
    C158    C    0.56824   0.47573   0.18010   1.000
    C159    C    0.56824   0.97572   0.18010   1.000
    C160    C    0.05092   0.37160   0.96575   1.000
    C161    C    0.05093   0.87160   0.96575   1.000
    C162    C    0.55093   0.37160   0.96575   1.000
    C163    C    0.55093   0.87160   0.96575   1.000
    C164    C    0.36315   0.46510   0.05758   1.000
    C165    C    0.36315   0.96510   0.05758   1.000
    C166    C    0.86315   0.46510   0.05758   1.000
    C167    C    0.86316   0.96510   0.05758   1.000
    C168    C    0.16944   0.33733   0.17160   1.000
    C169    C    0.16944   0.83733   0.17160   1.000
    C170    C    0.66944   0.33733   0.17160   1.000
    C171    C    0.66945   0.83733   0.17160   1.000
    C172    C    0.26167   0.49031   0.29227   1.000
    C173    C    0.26168   0.99031   0.29227   1.000
    C174    C    0.76168   0.49031   0.29227   1.000
    C175    C    0.76168   0.99031   0.29227   1.000
    C176    C    0.10850   0.46176   0.44855   1.000
    C177    C    0.10851   0.96176   0.44855   1.000
    C178    C    0.60851   0.46176   0.44855   1.000
    C179    C    0.60851   0.96176   0.44855   1.000
    C180    C    0.31824   0.27424   0.31979   1.000
    C181    C    0.31825   0.77423   0.31979   1.000
    C182    C    0.81824   0.27424   0.31979   1.000
    C183    C    0.81825   0.77423   0.31979   1.000
    C184    C    0.30095   0.37833   0.53416   1.000
    C185    C    0.30096   0.87833   0.53416   1.000
    C186    C    0.80096   0.37833   0.53416   1.000
    C187    C    0.80096   0.87833   0.53416   1.000
    C188    C    0.11318   0.28499   0.44250   1.000
    C189    C    0.11318   0.78499   0.44250   1.000
    C190    C    0.61318   0.28499   0.44250   1.000
    C191    C    0.61319   0.78499   0.44250   1.000
    C192    C    0.08062   0.08729   0.67160   1.000
    C193    C    0.08062   0.58729   0.67160   1.000
    C194    C    0.58062   0.08729   0.67160   1.000
    C195    C    0.58062   0.58729   0.67160   1.000
    C196    C    0.48827   0.24029   0.79225   1.000
    C197    C    0.48827   0.74029   0.79225   1.000
    C198    C    0.98827   0.24029   0.79225   1.000
    C199    C    0.98827   0.74029   0.79225   1.000
    C200    C    0.14148   0.21161   0.94870   1.000
    C201    C    0.14149   0.71160   0.94870   1.000
    C202    C    0.64148   0.21160   0.94870   1.000
    C203    C    0.64149   0.71160   0.94870   1.000
    C204    C    0.43178   0.02427   0.81983   1.000
    C205    C    0.43178   0.52426   0.81983   1.000
    C206    C    0.93178   0.02427   0.81983   1.000
    C207    C    0.93178   0.52426   0.81983   1.000
    C208    C    0.44909   0.12839   0.03420   1.000
    C209    C    0.44909   0.62838   0.03420   1.000
    C210    C    0.94909   0.12839   0.03420   1.000
    C211    C    0.94909   0.62838   0.03420   1.000
    C212    C    0.13686   0.03489   0.94239   1.000
    C213    C    0.13687   0.53489   0.94239   1.000
    C214    C    0.63687   0.03489   0.94239   1.000
    C215    C    0.63687   0.53489   0.94239   1.000
    C216    C    0.33057   0.16266   0.82831   1.000
    C217    C    0.33057   0.66266   0.82831   1.000
    C218    C    0.83057   0.16266   0.82831   1.000
    C219    C    0.83058   0.66266   0.82831   1.000
    C220    C    0.23833   0.00968   0.70770   1.000
    C221    C    0.23834   0.50968   0.70770   1.000
    C222    C    0.73834   0.00968   0.70770   1.000
    C223    C    0.73834   0.50968   0.70770   1.000
    C224    C    0.39150   0.03823   0.55142   1.000
    C225    C    0.39151   0.53823   0.55142   1.000
    C226    C    0.89151   0.03823   0.55142   1.000
    C227    C    0.89151   0.53822   0.55142   1.000
    C228    C    0.18177   0.22576   0.68018   1.000
    C229    C    0.18177   0.72575   0.68018   1.000
    C230    C    0.68177   0.22576   0.68018   1.000
    C231    C    0.68178   0.72575   0.68018   1.000
    C232    C    0.19905   0.12166   0.46580   1.000
    C233    C    0.19906   0.62165   0.46580   1.000
    C234    C    0.69906   0.12166   0.46580   1.000
    C235    C    0.69906   0.62165   0.46581   1.000
    C236    C    0.38683   0.21500   0.55747   1.000
    C237    C    0.38683   0.71499   0.55747   1.000
    C238    C    0.88683   0.21500   0.55747   1.000
    C239    C    0.88684   0.71499   0.55747   1.000
    C240    C    0.40494   0.40132   0.24585   1.000
    C241    C    0.40494   0.90132   0.24585   1.000
    C242    C    0.90494   0.40132   0.24585   1.000
    C243    C    0.90495   0.90132   0.24585   1.000
    C244    C    0.47542   0.40765   0.36437   1.000
    C245    C    0.47542   0.90765   0.36437   1.000
    C246    C    0.97542   0.40765   0.36437   1.000
    C247    C    0.97542   0.90765   0.36437   1.000
    C248    C    0.00922   0.31530   0.21441   1.000
    C249    C    0.00923   0.81529   0.21441   1.000
    C250    C    0.50922   0.31530   0.21441   1.000
    C251    C    0.50923   0.81529   0.21441   1.000
    C252    C    0.00024   0.22989   0.13800   1.000
    C253    C    0.00024   0.72988   0.13800   1.000
    C254    C    0.50024   0.22989   0.13800   1.000
    C255    C    0.50025   0.72988   0.13800   1.000
    C256    C    0.37562   0.32581   0.11200   1.000
    C257    C    0.37563   0.82581   0.11200   1.000
    C258    C    0.87563   0.32581   0.11200   1.000
    C259    C    0.87563   0.82581   0.11200   1.000
    C260    C    0.39647   0.25993   0.00044   1.000
    C261    C    0.39647   0.75993   0.00044   1.000
    C262    C    0.89647   0.25993   0.00044   1.000
    C263    C    0.89648   0.75993   0.00044   1.000
    C264    C    0.04407   0.42491   0.19117   1.000
    C265    C    0.04407   0.92491   0.19117   1.000
    C266    C    0.54407   0.42491   0.19117   1.000
    C267    C    0.54407   0.92491   0.19117   1.000
    C268    C    0.05544   0.00979   0.11811   1.000
    C269    C    0.05544   0.50979   0.11811   1.000
    C270    C    0.55544   0.00979   0.11811   1.000
    C271    C    0.55545   0.50979   0.11811   1.000
    C272    C    0.01398   0.34295   0.02028   1.000
    C273    C    0.01399   0.84294   0.02028   1.000
    C274    C    0.51399   0.34295   0.02028   1.000
    C275    C    0.51399   0.84294   0.02028   1.000
    C276    C    0.05540   0.42533   0.96110   1.000
    C277    C    0.05541   0.92533   0.96110   1.000
    C278    C    0.55541   0.42533   0.96110   1.000
    C279    C    0.55541   0.92533   0.96110   1.000
    C280    C    0.42385   0.44817   0.06295   1.000
    C281    C    0.42385   0.94817   0.06295   1.000
    C282    C    0.92385   0.44817   0.06295   1.000
    C283    C    0.92386   0.94817   0.06295   1.000
    C284    C    0.31414   0.44463   0.09782   1.000
    C285    C    0.31415   0.94463   0.09782   1.000
    C286    C    0.81415   0.44463   0.09782   1.000
    C287    C    0.81415   0.94463   0.09782   1.000
    C288    C    0.15497   0.34879   0.25409   1.000
    C289    C    0.15498   0.84879   0.25409   1.000
    C290    C    0.65498   0.34879   0.25409   1.000
    C291    C    0.65498   0.84879   0.25409   1.000
    C292    C    0.22545   0.34237   0.13559   1.000
    C293    C    0.22546   0.84236   0.13559   1.000
    C294    C    0.72546   0.34237   0.13559   1.000
    C295    C    0.72546   0.84236   0.13559   1.000
    C296    C    0.25914   0.43472   0.28554   1.000
    C297    C    0.25914   0.93472   0.28554   1.000
    C298    C    0.75914   0.43472   0.28554   1.000
    C299    C    0.75915   0.93472   0.28554   1.000
    C300    C    0.25023   0.02012   0.36165   1.000
    C301    C    0.25023   0.52012   0.36165   1.000
    C302    C    0.75023   0.02012   0.36165   1.000
    C303    C    0.75024   0.52012   0.36165   1.000
    C304    C    0.12559   0.42425   0.38751   1.000
    C305    C    0.12560   0.92425   0.38751   1.000
    C306    C    0.62560   0.42425   0.38751   1.000
    C307    C    0.62560   0.92425   0.38751   1.000
    C308    C    0.14644   0.49012   0.49940   1.000
    C309    C    0.14644   0.99011   0.49940   1.000
    C310    C    0.64644   0.49012   0.49940   1.000
    C311    C    0.64645   0.99011   0.49940   1.000
    C312    C    0.29410   0.32510   0.30879   1.000
    C313    C    0.29411   0.82509   0.30879   1.000
    C314    C    0.79411   0.32510   0.30879   1.000
    C315    C    0.79411   0.82509   0.30879   1.000
    C316    C    0.30544   0.24019   0.38181   1.000
    C317    C    0.30545   0.74018   0.38181   1.000
    C318    C    0.80544   0.24019   0.38181   1.000
    C319    C    0.80545   0.74018   0.38181   1.000
    C320    C    0.26400   0.40704   0.47965   1.000
    C321    C    0.26401   0.90704   0.47965   1.000
    C322    C    0.76401   0.40704   0.47965   1.000
    C323    C    0.76401   0.90704   0.47965   1.000
    C324    C    0.30540   0.32460   0.53880   1.000
    C325    C    0.30541   0.82460   0.53880   1.000
    C326    C    0.80540   0.32460   0.53880   1.000
    C327    C    0.80541   0.82460   0.53880   1.000
    C328    C    0.17386   0.30188   0.43707   1.000
    C329    C    0.17387   0.80188   0.43707   1.000
    C330    C    0.67387   0.30188   0.43707   1.000
    C331    C    0.67387   0.80188   0.43707   1.000
    C332    C    0.06416   0.30543   0.40217   1.000
    C333    C    0.06417   0.80542   0.40217   1.000
    C334    C    0.56416   0.30543   0.40217   1.000
    C335    C    0.56417   0.80542   0.40217   1.000
    C336    C    0.09507   0.09867   0.75412   1.000
    C337    C    0.09507   0.59867   0.75412   1.000
    C338    C    0.59507   0.09867   0.75412   1.000
    C339    C    0.59508   0.59867   0.75412   1.000
    C340    C    0.02459   0.09234   0.63560   1.000
    C341    C    0.02459   0.59234   0.63560   1.000
    C342    C    0.52460   0.09234   0.63560   1.000
    C343    C    0.52460   0.59234   0.63560   1.000
    C344    C    0.49079   0.18469   0.78556   1.000
    C345    C    0.49079   0.68469   0.78556   1.000
    C346    C    0.99079   0.18469   0.78556   1.000
    C347    C    0.99079   0.68469   0.78556   1.000
    C348    C    0.49977   0.27010   0.86158   1.000
    C349    C    0.49978   0.77010   0.86158   1.000
    C350    C    0.99977   0.27010   0.86158   1.000
    C351    C    0.99978   0.77010   0.86158   1.000
    C352    C    0.12439   0.17418   0.88758   1.000
    C353    C    0.12439   0.67418   0.88758   1.000
    C354    C    0.62439   0.17418   0.88758   1.000
    C355    C    0.62439   0.67418   0.88758   1.000
    C356    C    0.10354   0.24006   0.99953   1.000
    C357    C    0.10355   0.74006   0.99953   1.000
    C358    C    0.60354   0.24006   0.99953   1.000
    C359    C    0.60355   0.74006   0.99953   1.000
    C360    C    0.45594   0.07508   0.80880   1.000
    C361    C    0.45595   0.57507   0.80880   1.000
    C362    C    0.95595   0.07508   0.80880   1.000
    C363    C    0.95595   0.57507   0.80880   1.000
    C364    C    0.44457   0.49020   0.88186   1.000
    C365    C    0.44457   0.99020   0.88186   1.000
    C366    C    0.94457   0.49020   0.88186   1.000
    C367    C    0.94458   0.99020   0.88186   1.000
    C368    C    0.48603   0.15705   0.97969   1.000
    C369    C    0.48603   0.65704   0.97969   1.000
    C370    C    0.98603   0.15705   0.97969   1.000
    C371    C    0.98603   0.65704   0.97969   1.000
    C372    C    0.44460   0.07466   0.03887   1.000
    C373    C    0.44461   0.57466   0.03887   1.000
    C374    C    0.94461   0.07466   0.03887   1.000
    C375    C    0.94461   0.57466   0.03887   1.000
    C376    C    0.07616   0.05182   0.93702   1.000
    C377    C    0.07617   0.55182   0.93702   1.000
    C378    C    0.57616   0.05182   0.93702   1.000
    C379    C    0.57617   0.55182   0.93702   1.000
    C380    C    0.18587   0.05536   0.90216   1.000
    C381    C    0.18587   0.55536   0.90216   1.000
    C382    C    0.68587   0.05536   0.90216   1.000
    C383    C    0.68587   0.55536   0.90216   1.000
    C384    C    0.34504   0.15120   0.74588   1.000
    C385    C    0.34504   0.65120   0.74588   1.000
    C386    C    0.84504   0.15120   0.74588   1.000
    C387    C    0.84504   0.65120   0.74588   1.000
    C388    C    0.27455   0.15763   0.86438   1.000
    C389    C    0.27456   0.65762   0.86438   1.000
    C390    C    0.77456   0.15763   0.86438   1.000
    C391    C    0.77456   0.65762   0.86438   1.000
    C392    C    0.24087   0.06527   0.71443   1.000
    C393    C    0.24087   0.56527   0.71443   1.000
    C394    C    0.74087   0.06527   0.71443   1.000
    C395    C    0.74088   0.56527   0.71443   1.000
    C396    C    0.24978   0.47987   0.63830   1.000
    C397    C    0.24978   0.97987   0.63830   1.000
    C398    C    0.74978   0.47987   0.63830   1.000
    C399    C    0.74979   0.97987   0.63830   1.000
    C400    C    0.37442   0.07574   0.61246   1.000
    C401    C    0.37442   0.57574   0.61246   1.000
    C402    C    0.87442   0.07574   0.61246   1.000
    C403    C    0.87443   0.57574   0.61246   1.000
    C404    C    0.35357   0.00988   0.50052   1.000
    C405    C    0.35358   0.50987   0.50052   1.000
    C406    C    0.85357   0.00988   0.50052   1.000
    C407    C    0.85358   0.50987   0.50052   1.000
    C408    C    0.20591   0.17490   0.69118   1.000
    C409    C    0.20591   0.67489   0.69118   1.000
    C410    C    0.70591   0.17490   0.69118   1.000
    C411    C    0.70591   0.67489   0.69118   1.000
    C412    C    0.19457   0.25980   0.61816   1.000
    C413    C    0.19457   0.75980   0.61816   1.000
    C414    C    0.69457   0.25980   0.61816   1.000
    C415    C    0.69458   0.75980   0.61816   1.000
    C416    C    0.23601   0.09295   0.52032   1.000
    C417    C    0.23601   0.59295   0.52032   1.000
    C418    C    0.73601   0.09295   0.52032   1.000
    C419    C    0.73601   0.59295   0.52032   1.000
    C420    C    0.19461   0.17539   0.46112   1.000
    C421    C    0.19461   0.67538   0.46112   1.000
    C422    C    0.69461   0.17539   0.46112   1.000
    C423    C    0.69462   0.67538   0.46112   1.000
    C424    C    0.32615   0.19811   0.56290   1.000
    C425    C    0.32615   0.69811   0.56290   1.000
    C426    C    0.82615   0.19811   0.56290   1.000
    C427    C    0.82615   0.69811   0.56290   1.000
    C428    C    0.43585   0.19456   0.59780   1.000
    C429    C    0.43585   0.69456   0.59780   1.000
    C430    C    0.93585   0.19456   0.59780   1.000
    C431    C    0.93586   0.69456   0.59780   1.000
    O432    O    0.44824   0.75496   0.00022   1.000
    O433    O    0.50013   0.73994   0.06900   1.000
    O434    O    0.49989   0.76005   0.93079   1.000
    O435    O    0.55178   0.74503   0.99977   1.000
    O436    O    0.97230   0.03733   0.01944   1.000
    O437    O    0.02772   0.00490   0.05906   1.000
    O438    O    0.97229   0.99510   0.94093   1.000
    O439    O    0.02770   0.96266   0.98055   1.000
    O440    O    0.97231   0.53733   0.01944   1.000
    O441    O    0.02772   0.50489   0.05906   1.000
    O442    O    0.97229   0.49510   0.94093   1.000
    O443    O    0.02770   0.46266   0.98055   1.000
    O444    O    0.47230   0.03733   0.01944   1.000
    O445    O    0.52772   0.00490   0.05906   1.000
    O446    O    0.47229   0.99510   0.94093   1.000
    O447    O    0.52771   0.96266   0.98055   1.000
    O448    O    0.47231   0.53733   0.01944   1.000
    O449    O    0.52773   0.50489   0.05906   1.000
    O450    O    0.47229   0.49510   0.94093   1.000
    O451    O    0.52771   0.46266   0.98055   1.000
    O452    O    0.44824   0.25496   0.00022   1.000
    O453    O    0.50012   0.23994   0.06900   1.000
    O454    O    0.49989   0.26005   0.93079   1.000
    O455    O    0.55178   0.24503   0.99977   1.000
    O456    O    0.94824   0.75496   0.00022   1.000
    O457    O    0.00012   0.73994   0.06900   1.000
    O458    O    0.99989   0.76005   0.93079   1.000
    O459    O    0.05178   0.74503   0.99977   1.000
    O460    O    0.94824   0.25496   0.00022   1.000
    O461    O    0.00012   0.23994   0.06900   1.000
    O462    O    0.99989   0.26005   0.93079   1.000
    O463    O    0.05177   0.24503   0.99977   1.000
    O464    O    0.37750   0.27416   0.02586   1.000
    O465    O    0.37750   0.77416   0.02586   1.000
    O466    O    0.87750   0.27416   0.02586   1.000
    O467    O    0.87751   0.77416   0.02586   1.000
    O468    O    0.35867   0.48338   0.03513   1.000
    O469    O    0.35868   0.98255   0.03513   1.000
    O470    O    0.85868   0.48338   0.03513   1.000
    O471    O    0.85868   0.98255   0.03513   1.000
    O472    O    0.98899   0.36021   0.07494   1.000
    O473    O    0.03245   0.35728   0.99302   1.000
    O474    O    0.98899   0.86020   0.07494   1.000
    O475    O    0.03246   0.85727   0.99302   1.000
    O476    O    0.48899   0.36021   0.07494   1.000
    O477    O    0.53246   0.35728   0.99302   1.000
    O478    O    0.48899   0.86020   0.07494   1.000
    O479    O    0.53246   0.85727   0.99302   1.000
    O480    O    0.94685   0.10153   0.03654   1.000
    O481    O    0.93377   0.14186   0.05705   1.000
    O482    O    0.96756   0.14272   0.00695   1.000
    O483    O    0.94685   0.60152   0.03654   1.000
    O484    O    0.93377   0.64186   0.05705   1.000
    O485    O    0.96756   0.64271   0.00695   1.000
    O486    O    0.44685   0.60152   0.03654   1.000
    O487    O    0.43377   0.64186   0.05705   1.000
    O488    O    0.46756   0.64271   0.00695   1.000
    O489    O    0.44684   0.10153   0.03654   1.000
    O490    O    0.43377   0.14186   0.05705   1.000
    O491    O    0.46756   0.14272   0.00695   1.000
    O492    O    0.83159   0.78473   0.04787   1.000
    O493    O    0.83159   0.28473   0.04787   1.000
    O494    O    0.33159   0.78473   0.04787   1.000
    O495    O    0.33159   0.28473   0.04787   1.000
    O496    O    0.36708   0.30710   0.08163   1.000
    O497    O    0.36708   0.80710   0.08163   1.000
    O498    O    0.86708   0.30710   0.08163   1.000
    O499    O    0.86708   0.80710   0.08163   1.000
    O500    O    0.39350   0.45664   0.06026   1.000
    O501    O    0.33865   0.45487   0.07770   1.000
    O502    O    0.39350   0.95663   0.06026   1.000
    O503    O    0.33865   0.95486   0.07770   1.000
    O504    O    0.89350   0.45664   0.06026   1.000
    O505    O    0.83865   0.45487   0.07770   1.000
    O506    O    0.89351   0.95663   0.06026   1.000
    O507    O    0.83865   0.95486   0.07770   1.000
    O508    O    0.44392   0.91282   0.09628   1.000
    O509    O    0.44392   0.41282   0.09628   1.000
    O510    O    0.94392   0.41282   0.09628   1.000
    O511    O    0.94393   0.91282   0.09628   1.000
    O512    O    0.31138   0.41221   0.14454   1.000
    O513    O    0.81139   0.91221   0.14454   1.000
    O514    O    0.81138   0.41221   0.14454   1.000
    O515    O    0.31138   0.91221   0.14454   1.000
    O516    O    0.91981   0.35164   0.12080   1.000
    O517    O    0.41981   0.85164   0.12080   1.000
    O518    O    0.41981   0.35164   0.12080   1.000
    O519    O    0.91981   0.85164   0.12080   1.000
    O520    O    0.56184   0.49276   0.14911   1.000
    O521    O    0.06184   0.99276   0.14911   1.000
    O522    O    0.56184   0.99276   0.14911   1.000
    O523    O    0.06184   0.49276   0.14911   1.000
    O524    O    0.64913   0.82925   0.15001   1.000
    O525    O    0.14912   0.32926   0.15001   1.000
    O526    O    0.14912   0.82925   0.15001   1.000
    O527    O    0.64912   0.32926   0.15001   1.000
    O528    O    0.50403   0.40119   0.16038   1.000
    O529    O    0.50404   0.90119   0.16038   1.000
    O530    O    0.00403   0.40119   0.16038   1.000
    O531    O    0.00404   0.90119   0.16038   1.000
    O532    O    0.19745   0.33985   0.15360   1.000
    O533    O    0.26703   0.36108   0.16343   1.000
    O534    O    0.19745   0.83984   0.15360   1.000
    O535    O    0.26704   0.86108   0.16343   1.000
    O536    O    0.69746   0.83984   0.15360   1.000
    O537    O    0.76704   0.86108   0.16343   1.000
    O538    O    0.69745   0.33985   0.15360   1.000
    O539    O    0.76704   0.36108   0.16343   1.000
    O540    O    0.50599   0.24479   0.17286   1.000
    O541    O    0.00599   0.24479   0.17286   1.000
    O542    O    0.50600   0.74479   0.17286   1.000
    O543    O    0.00599   0.74479   0.17286   1.000
    O544    O    0.66221   0.84306   0.21285   1.000
    O545    O    0.66221   0.34306   0.21285   1.000
    O546    O    0.16221   0.84306   0.21285   1.000
    O547    O    0.16221   0.34306   0.21285   1.000
    O548    O    0.55616   0.95032   0.18564   1.000
    O549    O    0.58637   0.98298   0.20588   1.000
    O550    O    0.05615   0.45032   0.18564   1.000
    O551    O    0.08636   0.48298   0.20588   1.000
    O552    O    0.05615   0.95032   0.18564   1.000
    O553    O    0.08637   0.98298   0.20588   1.000
    O554    O    0.55615   0.45032   0.18564   1.000
    O555    O    0.58637   0.48298   0.20588   1.000
    O556    O    0.35678   0.39056   0.21856   1.000
    O557    O    0.28388   0.40726   0.23840   1.000
    O558    O    0.35678   0.89055   0.21856   1.000
    O559    O    0.28388   0.90725   0.23840   1.000
    O560    O    0.85678   0.39056   0.21856   1.000
    O561    O    0.78388   0.40726   0.23840   1.000
    O562    O    0.85679   0.89055   0.21856   1.000
    O563    O    0.78389   0.90725   0.23840   1.000
    O564    O    0.01048   0.28750   0.21107   1.000
    O565    O    0.01845   0.24842   0.23885   1.000
    O566    O    0.01049   0.78750   0.21107   1.000
    O567    O    0.01845   0.74841   0.23885   1.000
    O568    O    0.51049   0.28750   0.21107   1.000
    O569    O    0.51845   0.24842   0.23885   1.000
    O570    O    0.51049   0.78750   0.21107   1.000
    O571    O    0.51846   0.74841   0.23885   1.000
    O572    O    0.53392   0.34276   0.26120   1.000
    O573    O    0.53393   0.84276   0.26120   1.000
    O574    O    0.03393   0.84276   0.26120   1.000
    O575    O    0.03392   0.34276   0.26120   1.000
    O576    O    0.76835   0.00160   0.26114   1.000
    O577    O    0.76835   0.50160   0.26114   1.000
    O578    O    0.26835   0.00160   0.26114   1.000
    O579    O    0.26835   0.50160   0.26114   1.000
    O580    O    0.91217   0.90701   0.28708   1.000
    O581    O    0.91217   0.40701   0.28708   1.000
    O582    O    0.41217   0.90701   0.28708   1.000
    O583    O    0.41217   0.40701   0.28708   1.000
    O584    O    0.10680   0.35951   0.28104   1.000
    O585    O    0.10680   0.85951   0.28104   1.000
    O586    O    0.60680   0.35951   0.28104   1.000
    O587    O    0.60680   0.85951   0.28104   1.000
    O588    O    0.83638   0.26696   0.29403   1.000
    O589    O    0.83638   0.76696   0.29403   1.000
    O590    O    0.33637   0.26696   0.29403   1.000
    O591    O    0.33638   0.76696   0.29403   1.000
    O592    O    0.76041   0.96251   0.28891   1.000
    O593    O    0.76041   0.46252   0.28891   1.000
    O594    O    0.26041   0.96251   0.28891   1.000
    O595    O    0.26041   0.46252   0.28891   1.000
    O596    O    0.75596   0.50522   0.32696   1.000
    O597    O    0.25595   0.50522   0.32696   1.000
    O598    O    0.25595   0.00521   0.32696   1.000
    O599    O    0.75596   0.00521   0.32696   1.000
    O600    O    0.51703   0.88894   0.33619   1.000
    O601    O    0.56140   0.83783   0.35508   1.000
    O602    O    0.01702   0.38894   0.33619   1.000
    O603    O    0.06139   0.33783   0.35508   1.000
    O604    O    0.51702   0.38894   0.33619   1.000
    O605    O    0.56139   0.33783   0.35508   1.000
    O606    O    0.01703   0.88894   0.33619   1.000
    O607    O    0.06140   0.83783   0.35508   1.000
    O608    O    0.30617   0.29967   0.31429   1.000
    O609    O    0.25405   0.34882   0.33957   1.000
    O610    O    0.30618   0.79966   0.31429   1.000
    O611    O    0.25405   0.84882   0.33957   1.000
    O612    O    0.80617   0.29967   0.31429   1.000
    O613    O    0.75405   0.34882   0.33957   1.000
    O614    O    0.80618   0.79966   0.31429   1.000
    O615    O    0.75405   0.84882   0.33957   1.000
    O616    O    0.31184   0.25721   0.35080   1.000
    O617    O    0.31185   0.75721   0.35080   1.000
    O618    O    0.81184   0.25721   0.35080   1.000
    O619    O    0.81185   0.75721   0.35080   1.000
    O620    O    0.44740   0.41017   0.34634   1.000
    O621    O    0.39906   0.42076   0.34995   1.000
    O622    O    0.44741   0.91017   0.34634   1.000
    O623    O    0.39906   0.92075   0.34995   1.000
    O624    O    0.94741   0.41017   0.34634   1.000
    O625    O    0.89906   0.42076   0.34995   1.000
    O626    O    0.94741   0.91017   0.34634   1.000
    O627    O    0.89907   0.92075   0.34995   1.000
    O628    O    0.75012   0.01006   0.43082   1.000
    O629    O    0.25012   0.01006   0.43082   1.000
    O630    O    0.25012   0.51006   0.43082   1.000
    O631    O    0.75012   0.51006   0.43082   1.000
    O632    O    0.66979   0.39840   0.37893   1.000
    O633    O    0.69393   0.33721   0.40371   1.000
    O634    O    0.73900   0.38979   0.42500   1.000
    O635    O    0.66980   0.89840   0.37893   1.000
    O636    O    0.69393   0.83721   0.40371   1.000
    O637    O    0.73900   0.88979   0.42500   1.000
    O638    O    0.16979   0.89840   0.37893   1.000
    O639    O    0.19393   0.83721   0.40371   1.000
    O640    O    0.23900   0.88979   0.42500   1.000
    O641    O    0.16979   0.39840   0.37893   1.000
    O642    O    0.19392   0.33721   0.40371   1.000
    O643    O    0.23899   0.38979   0.42500   1.000
    O644    O    0.27772   0.24509   0.44090   1.000
    O645    O    0.27773   0.74509   0.44090   1.000
    O646    O    0.77773   0.24509   0.44090   1.000
    O647    O    0.77773   0.74509   0.44090   1.000
    O648    O    0.11705   0.44301   0.41803   1.000
    O649    O    0.11705   0.94300   0.41803   1.000
    O650    O    0.61705   0.44301   0.41803   1.000
    O651    O    0.61706   0.94300   0.41803   1.000
    O652    O    0.58867   0.29521   0.42234   1.000
    O653    O    0.08867   0.79521   0.42234   1.000
    O654    O    0.08867   0.29521   0.42234   1.000
    O655    O    0.58868   0.79521   0.42234   1.000
    O656    O    0.68371   0.60820   0.44299   1.000
    O657    O    0.68371   0.10820   0.44298   1.000
    O658    O    0.18371   0.60820   0.44298   1.000
    O659    O    0.18371   0.10820   0.44298   1.000
    O660    O    0.14352   0.29344   0.43979   1.000
    O661    O    0.64353   0.79343   0.43979   1.000
    O662    O    0.14352   0.79343   0.43979   1.000
    O663    O    0.64352   0.29344   0.43979   1.000
    O664    O    0.60872   0.76677   0.46504   1.000
    O665    O    0.60872   0.26677   0.46504   1.000
    O666    O    0.10872   0.76677   0.46504   1.000
    O667    O    0.10871   0.26677   0.46504   1.000
    O668    O    0.58157   0.96550   0.45188   1.000
    O669    O    0.62748   0.97594   0.47398   1.000
    O670    O    0.58157   0.46551   0.45188   1.000
    O671    O    0.62748   0.47594   0.47398   1.000
    O672    O    0.08157   0.96550   0.45188   1.000
    O673    O    0.12748   0.97594   0.47398   1.000
    O674    O    0.08157   0.46551   0.45188   1.000
    O675    O    0.12747   0.47594   0.47398   1.000
    O676    O    0.19683   0.14852   0.46346   1.000
    O677    O    0.22231   0.21269   0.48056   1.000
    O678    O    0.19684   0.64852   0.46346   1.000
    O679    O    0.22231   0.71269   0.48056   1.000
    O680    O    0.69684   0.14852   0.46346   1.000
    O681    O    0.72231   0.21269   0.48056   1.000
    O682    O    0.69684   0.64852   0.46346   1.000
    O683    O    0.72231   0.71269   0.48056   1.000
    O684    O    0.71753   0.10731   0.49306   1.000
    O685    O    0.21753   0.60730   0.49306   1.000
    O686    O    0.21753   0.10731   0.49306   1.000
    O687    O    0.71754   0.60730   0.49307   1.000
    O688    O    0.28248   0.39269   0.50691   1.000
    O689    O    0.28248   0.89268   0.50691   1.000
    O690    O    0.78248   0.39269   0.50691   1.000
    O691    O    0.78249   0.89268   0.50691   1.000
    O692    O    0.69823   0.99506   0.49970   1.000
    O693    O    0.19822   0.49505   0.49970   1.000
    O694    O    0.19822   0.99506   0.49970   1.000
    O695    O    0.69823   0.49505   0.49970   1.000
    O696    O    0.30179   0.00494   0.50026   1.000
    O697    O    0.24989   0.98993   0.56915   1.000
    O698    O    0.77771   0.78730   0.51939   1.000
    O699    O    0.72229   0.75490   0.55907   1.000
    O700    O    0.77771   0.28730   0.51939   1.000
    O701    O    0.72229   0.25490   0.55907   1.000
    O702    O    0.27771   0.78730   0.51939   1.000
    O703    O    0.22229   0.75490   0.55907   1.000
    O704    O    0.27770   0.28730   0.51939   1.000
    O705    O    0.22229   0.25490   0.55907   1.000
    O706    O    0.80179   0.50493   0.50026   1.000
    O707    O    0.74990   0.48993   0.56915   1.000
    O708    O    0.80179   0.00494   0.50026   1.000
    O709    O    0.74990   0.98993   0.56915   1.000
    O710    O    0.30179   0.50493   0.50026   1.000
    O711    O    0.24989   0.48993   0.56915   1.000
    O712    O    0.37254   0.02405   0.52597   1.000
    O713    O    0.37254   0.52405   0.52597   1.000
    O714    O    0.87254   0.02405   0.52597   1.000
    O715    O    0.87255   0.52405   0.52597   1.000
    O716    O    0.89130   0.73322   0.53493   1.000
    O717    O    0.89130   0.23322   0.53493   1.000
    O718    O    0.39130   0.73322   0.53493   1.000
    O719    O    0.39129   0.23322   0.53493   1.000
    O720    O    0.76102   0.61020   0.57497   1.000
    O721    O    0.76102   0.11020   0.57497   1.000
    O722    O    0.26102   0.61020   0.57497   1.000
    O723    O    0.26101   0.11020   0.57497   1.000
    O724    O    0.80318   0.35147   0.53648   1.000
    O725    O    0.81631   0.39179   0.55699   1.000
    O726    O    0.80318   0.85147   0.53648   1.000
    O727    O    0.81631   0.89179   0.55699   1.000
    O728    O    0.30318   0.85147   0.53648   1.000
    O729    O    0.31631   0.89179   0.55699   1.000
    O730    O    0.30318   0.35147   0.53648   1.000
    O731    O    0.31630   0.39179   0.55699   1.000
    O732    O    0.41844   0.03449   0.54810   1.000
    O733    O    0.41845   0.53448   0.54810   1.000
    O734    O    0.91845   0.03449   0.54810   1.000
    O735    O    0.91845   0.53448   0.54810   1.000
    O736    O    0.88297   0.55698   0.58194   1.000
    O737    O    0.38296   0.05698   0.58194   1.000
    O738    O    0.38296   0.55698   0.58194   1.000
    O739    O    0.88296   0.05698   0.58194   1.000
    O740    O    0.35649   0.70655   0.56019   1.000
    O741    O    0.41134   0.70478   0.57764   1.000
    O742    O    0.35649   0.20655   0.56019   1.000
    O743    O    0.41134   0.20478   0.57764   1.000
    O744    O    0.85650   0.70655   0.56019   1.000
    O745    O    0.91135   0.70478   0.57764   1.000
    O746    O    0.85649   0.20655   0.56019   1.000
    O747    O    0.91134   0.20478   0.57764   1.000
    O748    O    0.30608   0.16278   0.59626   1.000
    O749    O    0.30609   0.66278   0.59626   1.000
    O750    O    0.80609   0.16278   0.59626   1.000
    O751    O    0.80609   0.66278   0.59626   1.000
    O752    O    0.93862   0.16216   0.64454   1.000
    O753    O    0.43862   0.66216   0.64454   1.000
    O754    O    0.43862   0.16216   0.64454   1.000
    O755    O    0.93863   0.66216   0.64454   1.000
    O756    O    0.83023   0.60159   0.62104   1.000
    O757    O    0.83022   0.10159   0.62104   1.000
    O758    O    0.33022   0.60159   0.62104   1.000
    O759    O    0.33022   0.10159   0.62104   1.000
    O760    O    0.68818   0.74278   0.64917   1.000
    O761    O    0.68817   0.24278   0.64917   1.000
    O762    O    0.18817   0.74278   0.64917   1.000
    O763    O    0.18817   0.24278   0.64917   1.000
    O764    O    0.60096   0.57923   0.64999   1.000
    O765    O    0.60095   0.07923   0.64999   1.000
    O766    O    0.10095   0.57923   0.64999   1.000
    O767    O    0.10095   0.07923   0.64999   1.000
    O768    O    0.24596   0.15117   0.66040   1.000
    O769    O    0.24597   0.65117   0.66040   1.000
    O770    O    0.74597   0.15117   0.66040   1.000
    O771    O    0.74597   0.65117   0.66040   1.000
    O772    O    0.05260   0.08982   0.65360   1.000
    O773    O    0.98299   0.11105   0.66344   1.000
    O774    O    0.05261   0.58981   0.65360   1.000
    O775    O    0.98300   0.61105   0.66344   1.000
    O776    O    0.55261   0.08982   0.65360   1.000
    O777    O    0.48299   0.11105   0.66344   1.000
    O778    O    0.55261   0.58981   0.65360   1.000
    O779    O    0.48300   0.61105   0.66344   1.000
    O780    O    0.24406   0.49477   0.67300   1.000
    O781    O    0.74406   0.99477   0.67300   1.000
    O782    O    0.74406   0.49477   0.67300   1.000
    O783    O    0.24406   0.99477   0.67300   1.000
    O784    O    0.08784   0.09298   0.71286   1.000
    O785    O    0.08785   0.59298   0.71286   1.000
    O786    O    0.58785   0.09298   0.71286   1.000
    O787    O    0.58785   0.59298   0.71286   1.000
    O788    O    0.69384   0.70032   0.68568   1.000
    O789    O    0.66364   0.73302   0.70594   1.000
    O790    O    0.69384   0.20033   0.68568   1.000
    O791    O    0.66364   0.23303   0.70594   1.000
    O792    O    0.19384   0.70032   0.68568   1.000
    O793    O    0.16364   0.73302   0.70594   1.000
    O794    O    0.19384   0.20033   0.68568   1.000
    O795    O    0.16364   0.23303   0.70594   1.000
    O796    O    0.39321   0.14048   0.71858   1.000
    O797    O    0.46609   0.15723   0.73842   1.000
    O798    O    0.39322   0.64048   0.71858   1.000
    O799    O    0.46609   0.65722   0.73842   1.000
    O800    O    0.89322   0.14048   0.71858   1.000
    O801    O    0.96609   0.15723   0.73842   1.000
    O802    O    0.89322   0.64048   0.71858   1.000
    O803    O    0.96610   0.65722   0.73842   1.000
    O804    O    0.73961   0.53747   0.71107   1.000
    O805    O    0.73167   0.49839   0.73883   1.000
    O806    O    0.23961   0.53747   0.71107   1.000
    O807    O    0.23167   0.49839   0.73883   1.000
    O808    O    0.23960   0.03748   0.71107   1.000
    O809    O    0.23167   0.99839   0.73883   1.000
    O810    O    0.73961   0.03748   0.71107   1.000
    O811    O    0.73167   0.99839   0.73883   1.000
    O812    O    0.71613   0.09274   0.76157   1.000
    O813    O    0.71614   0.59273   0.76157   1.000
    O814    O    0.21613   0.09274   0.76157   1.000
    O815    O    0.21614   0.59273   0.76157   1.000
    O816    O    0.98157   0.75157   0.76112   1.000
    O817    O    0.98156   0.25157   0.76112   1.000
    O818    O    0.48156   0.25157   0.76112   1.000
    O819    O    0.48156   0.75157   0.76112   1.000
    O820    O    0.33780   0.15693   0.78710   1.000
    O821    O    0.83781   0.15693   0.78710   1.000
    O822    O    0.33781   0.65693   0.78710   1.000
    O823    O    0.83781   0.65693   0.78710   1.000
    O824    O    0.14323   0.10944   0.78141   1.000
    O825    O    0.14324   0.60943   0.78141   1.000
    O826    O    0.64324   0.10944   0.78141   1.000
    O827    O    0.64324   0.60943   0.78141   1.000
    O828    O    0.41365   0.01701   0.79407   1.000
    O829    O    0.41365   0.51701   0.79407   1.000
    O830    O    0.91365   0.01701   0.79407   1.000
    O831    O    0.91365   0.51701   0.79407   1.000
    O832    O    0.48953   0.21249   0.78891   1.000
    O833    O    0.48953   0.71249   0.78891   1.000
    O834    O    0.98953   0.21249   0.78891   1.000
    O835    O    0.98953   0.71249   0.78891   1.000
    O836    O    0.49402   0.25520   0.82692   1.000
    O837    O    0.99403   0.75519   0.82692   1.000
    O838    O    0.99402   0.25520   0.82692   1.000
    O839    O    0.49402   0.75519   0.82692   1.000
    O840    O    0.23297   0.13891   0.83654   1.000
    O841    O    0.18863   0.08778   0.85544   1.000
    O842    O    0.23298   0.63891   0.83654   1.000
    O843    O    0.18863   0.58778   0.85544   1.000
    O844    O    0.73298   0.13891   0.83654   1.000
    O845    O    0.68863   0.08778   0.85544   1.000
    O846    O    0.73298   0.63891   0.83654   1.000
    O847    O    0.68864   0.58778   0.85544   1.000
    O848    O    0.94387   0.54967   0.81432   1.000
    O849    O    0.99599   0.59880   0.83957   1.000
    O850    O    0.94386   0.04967   0.81432   1.000
    O851    O    0.99598   0.09880   0.83957   1.000
    O852    O    0.44386   0.54967   0.81432   1.000
    O853    O    0.49599   0.59880   0.83957   1.000
    O854    O    0.44386   0.04967   0.81432   1.000
    O855    O    0.49598   0.09880   0.83957   1.000
    O856    O    0.93818   0.50723   0.85084   1.000
    O857    O    0.93818   0.00723   0.85084   1.000
    O858    O    0.43817   0.50723   0.85084   1.000
    O859    O    0.43817   0.00723   0.85084   1.000
    O860    O    0.80256   0.16015   0.84635   1.000
    O861    O    0.85089   0.17074   0.84993   1.000
    O862    O    0.30256   0.16015   0.84635   1.000
    O863    O    0.35089   0.17074   0.84993   1.000
    O864    O    0.30257   0.66014   0.84635   1.000
    O865    O    0.35089   0.67073   0.84993   1.000
    O866    O    0.80257   0.66014   0.84635   1.000
    O867    O    0.85090   0.67073   0.84993   1.000
    O868    O    0.08020   0.14835   0.87897   1.000
    O869    O    0.05609   0.08717   0.90369   1.000
    O870    O    0.01102   0.13978   0.92502   1.000
    O871    O    0.08021   0.64835   0.87897   1.000
    O872    O    0.05609   0.58717   0.90369   1.000
    O873    O    0.01103   0.63978   0.92502   1.000
    O874    O    0.58020   0.14835   0.87897   1.000
    O875    O    0.55609   0.08717   0.90369   1.000
    O876    O    0.51102   0.13978   0.92502   1.000
    O877    O    0.58021   0.64835   0.87897   1.000
    O878    O    0.55610   0.58717   0.90369   1.000
    O879    O    0.51103   0.63978   0.92502   1.000
    O880    O    0.63294   0.69289   0.91814   1.000
    O881    O    0.63294   0.19289   0.91814   1.000
    O882    O    0.13294   0.69289   0.91814   1.000
    O883    O    0.13293   0.19289   0.91814   1.000
    O884    O    0.66137   0.04512   0.92227   1.000
    O885    O    0.16137   0.54512   0.92227   1.000
    O886    O    0.66137   0.54512   0.92227   1.000
    O887    O    0.16136   0.04512   0.92227   1.000
    O888    O    0.06624   0.35813   0.94288   1.000
    O889    O    0.06625   0.85813   0.94288   1.000
    O890    O    0.56625   0.35813   0.94288   1.000
    O891    O    0.56625   0.85813   0.94288   1.000
    O892    O    0.60651   0.04335   0.93971   1.000
    O893    O    0.60652   0.54335   0.93971   1.000
    O894    O    0.10652   0.54335   0.93971   1.000
    O895    O    0.10651   0.04335   0.93971   1.000
    O896    O    0.64134   0.51661   0.96484   1.000
    O897    O    0.64134   0.01662   0.96484   1.000
    O898    O    0.14134   0.51661   0.96484   1.000
    O899    O    0.14133   0.01662   0.96484   1.000
    O900    O    0.66843   0.71526   0.95210   1.000
    O901    O    0.62252   0.72583   0.97412   1.000
    O902    O    0.66843   0.21526   0.95210   1.000
    O903    O    0.62251   0.22583   0.97412   1.000
    O904    O    0.16843   0.71526   0.95210   1.000
    O905    O    0.12252   0.72583   0.97412   1.000
    O906    O    0.16842   0.21526   0.95210   1.000
    O907    O    0.12251   0.22583   0.97412   1.000
    O908    O    0.05316   0.39847   0.96343   1.000
    O909    O    0.05317   0.89846   0.96343   1.000
    O910    O    0.55317   0.39847   0.96343   1.000
    O911    O    0.55317   0.89846   0.96343   1.000
    O912    O    0.43447   0.38940   0.18773   1.000
    O913    O    0.43447   0.88939   0.18773   1.000
    O914    O    0.93447   0.38940   0.18773   1.000
    O915    O    0.93447   0.88939   0.18773   1.000
    O916    O    0.98661   0.34638   0.17201   1.000
    O917    O    0.98661   0.84638   0.17201   1.000
    O918    O    0.48661   0.34638   0.17201   1.000
    O919    O    0.48661   0.84638   0.17201   1.000
    O920    O    0.34212   0.35280   0.15163   1.000
    O921    O    0.34212   0.85280   0.15163   1.000
    O922    O    0.84212   0.35280   0.15163   1.000
    O923    O    0.84213   0.85280   0.15163   1.000
    O924    O    0.05134   0.39757   0.24959   1.000
    O925    O    0.05135   0.89757   0.24959   1.000
    O926    O    0.55135   0.39757   0.24959   1.000
    O927    O    0.55135   0.89757   0.24959   1.000
    O928    O    0.00699   0.29647   0.01014   1.000
    O929    O    0.00700   0.79647   0.01014   1.000
    O930    O    0.50700   0.29647   0.01014   1.000
    O931    O    0.50700   0.79647   0.01014   1.000
    O932    O    0.46193   0.47408   0.03148   1.000
    O933    O    0.46193   0.97408   0.03148   1.000
    O934    O    0.96193   0.47408   0.03148   1.000
    O935    O    0.96193   0.97408   0.03148   1.000
    O936    O    0.18448   0.36067   0.31222   1.000
    O937    O    0.18448   0.86066   0.31222   1.000
    O938    O    0.68448   0.36067   0.31222   1.000
    O939    O    0.68449   0.86066   0.31222   1.000
    O940    O    0.23656   0.40363   0.32795   1.000
    O941    O    0.23657   0.90363   0.32795   1.000
    O942    O    0.73657   0.40363   0.32795   1.000
    O943    O    0.73657   0.90363   0.32795   1.000
    O944    O    0.09211   0.39724   0.34776   1.000
    O945    O    0.09211   0.89724   0.34776   1.000
    O946    O    0.59211   0.39724   0.34776   1.000
    O947    O    0.59211   0.89724   0.34776   1.000
    O948    O    0.30136   0.35244   0.25002   1.000
    O949    O    0.30136   0.85244   0.25002   1.000
    O950    O    0.80136   0.35244   0.25002   1.000
    O951    O    0.80137   0.85244   0.25002   1.000
    O952    O    0.25700   0.45352   0.48982   1.000
    O953    O    0.25700   0.95352   0.48982   1.000
    O954    O    0.75701   0.45352   0.48982   1.000
    O955    O    0.75701   0.95352   0.48982   1.000
    O956    O    0.21193   0.27594   0.46853   1.000
    O957    O    0.21194   0.77594   0.46853   1.000
    O958    O    0.71194   0.27594   0.46853   1.000
    O959    O    0.71194   0.77594   0.46853   1.000
    O960    O    0.06554   0.11060   0.81224   1.000
    O961    O    0.06555   0.61059   0.81224   1.000
    O962    O    0.56555   0.11060   0.81224   1.000
    O963    O    0.56555   0.61059   0.81224   1.000
    O964    O    0.51340   0.15361   0.82795   1.000
    O965    O    0.51341   0.65360   0.82795   1.000
    O966    O    0.01340   0.15361   0.82795   1.000
    O967    O    0.01341   0.65360   0.82795   1.000
    O968    O    0.15789   0.14719   0.84815   1.000
    O969    O    0.15789   0.64719   0.84815   1.000
    O970    O    0.65789   0.14719   0.84815   1.000
    O971    O    0.65790   0.64719   0.84815   1.000
    O972    O    0.44867   0.10242   0.75004   1.000
    O973    O    0.44867   0.60242   0.75004   1.000
    O974    O    0.94867   0.10242   0.75004   1.000
    O975    O    0.94867   0.60242   0.75004   1.000
    O976    O    0.49302   0.20352   0.98985   1.000
    O977    O    0.49302   0.70352   0.98985   1.000
    O978    O    0.99302   0.20352   0.98985   1.000
    O979    O    0.99302   0.70352   0.98985   1.000
    O980    O    0.03808   0.02591   0.96851   1.000
    O981    O    0.03808   0.52591   0.96851   1.000
    O982    O    0.53808   0.02591   0.96851   1.000
    O983    O    0.53809   0.52591   0.96851   1.000
    O984    O    0.31553   0.13933   0.68775   1.000
    O985    O    0.31553   0.63932   0.68775   1.000
    O986    O    0.81553   0.13933   0.68775   1.000
    O987    O    0.81554   0.63932   0.68775   1.000
    O988    O    0.26345   0.09636   0.67202   1.000
    O989    O    0.26345   0.59636   0.67202   1.000
    O990    O    0.76345   0.09636   0.67202   1.000
    O991    O    0.76345   0.59636   0.67202   1.000
    O992    O    0.40790   0.10275   0.65187   1.000
    O993    O    0.40791   0.60275   0.65187   1.000
    O994    O    0.90791   0.10275   0.65187   1.000
    O995    O    0.90791   0.60275   0.65187   1.000
    O996    O    0.19865   0.14755   0.74995   1.000
    O997    O    0.19865   0.64755   0.74995   1.000
    O998    O    0.69865   0.14755   0.74995   1.000
    O999    O    0.69866   0.64755   0.74995   1.000
    O1000   O    0.24300   0.04647   0.51016   1.000
    O1001   O    0.24301   0.54647   0.51016   1.000
    O1002   O    0.74301   0.04647   0.51016   1.000
    O1003   O    0.74301   0.54647   0.51016   1.000
    O1004   O    0.28808   0.22405   0.53145   1.000
    O1005   O    0.28808   0.72405   0.53145   1.000
    O1006   O    0.78808   0.22405   0.53145   1.000
    O1007   O    0.78808   0.72405   0.53145   1.000
loop_
    _geom_bond_atom_site_label_1
    _geom_bond_atom_site_label_2
    _geom_bond_distance
    _geom_bond_site_symmetry_2
    _ccdc_geom_bond_type
    C35    O432      1.05172      .   S
    C261   O432      1.05172      .   S
    C35    O433      1.05725      .   S
    C255   O433      1.05725      .   S
    C35    O434      1.06029  1_554   S
    C349   O434      1.06029      .   S
    C35    O435      1.05172  1_554   S
    C359   O435      1.05172      .   S
    C40    O436      1.06274  1_455   S
    C374   O436      1.06274      .   S
    C40    O437      1.04616      .   S
    C268   O437      1.04616      .   S
    C40    O438      1.04627  1_444   S
    C367   O438      1.04627      .   S
    C40    O439      1.06299  1_544   S
    C277   O439      1.06299      .   S
    C41    O440      1.06273  1_455   S
    C375   O440      1.06273      .   S
    C41    O441      1.04618      .   S
    C269   O441      1.04618      .   S
    C41    O442      1.04629  1_454   S
    C366   O442      1.04629      .   S
    C41    O443      1.06290  1_554   S
    C276   O443      1.06290      .   S
    C42    O444      1.06278      .   S
    C372   O444      1.06278      .   S
    C42    O445      1.04616      .   S
    C270   O445      1.04616      .   S
    C42    O446      1.04631  1_544   S
    C365   O446      1.04631      .   S
    C42    O447      1.06298  1_544   S
    C279   O447      1.06298      .   S
    C43    O448      1.06279      .   S
    C373   O448      1.06279      .   S
    C43    O449      1.04616      .   S
    C271   O449      1.04616      .   S
    C43    O450      1.04635  1_554   S
    C364   O450      1.04635      .   S
    C43    O451      1.06288  1_554   S
    C278   O451      1.06288      .   S
    C34    O452      1.05172      .   S
    C260   O452      1.05172      .   S
    C34    O453      1.05725      .   S
    C254   O453      1.05725      .   S
    C34    O454      1.06029  1_554   S
    C348   O454      1.06029      .   S
    C34    O455      1.05172  1_554   S
    C358   O455      1.05172      .   S
    C33    O456      1.05165  1_455   S
    C263   O456      1.05165      .   S
    C33    O457      1.05725      .   S
    C253   O457      1.05725      .   S
    C33    O458      1.06029  1_454   S
    C351   O458      1.06029      .   S
    C33    O459      1.05172  1_554   S
    C357   O459      1.05172      .   S
    C32    O460      1.05165  1_455   S
    C262   O460      1.05165      .   S
    C32    O461      1.05725      .   S
    C252   O461      1.05725      .   S
    C32    O462      1.06029  1_454   S
    C350   O462      1.06029      .   S
    C32    O463      1.05172  1_554   S
    C356   O463      1.05172      .   S
    C260   O464      0.62658      .   S
    C152   O464      0.62658      .   S
    C261   O465      0.62658      .   S
    C153   O465      0.62658      .   S
    C262   O466      0.62658      .   S
    C154   O466      0.62658      .   S
    C263   O467      0.62658      .   S
    C155   O467      0.62658      .   S
    C68    O468      0.55102      .   S
    C164   O468      0.55102      .   S
    C69    O469      0.53634  1_545   S
    C165   O469      0.53634      .   S
    C70    O470      0.55102      .   S
    C166   O470      0.55102      .   S
    C71    O471      0.53635  1_545   S
    C167   O471      0.53635      .   S
    C272   O472      1.03048  1_455   S
    C2     O472      1.03048      .   S
    C272   O473      0.64726  1_554   S
    C160   O473      0.64726      .   S
    C273   O474      1.03049  1_455   S
    C3     O474      1.03049      .   S
    C273   O475      0.64727  1_554   S
    C161   O475      0.64727      .   S
    C274   O476      1.03052      .   S
    C0     O476      1.03052      .   S
    C274   O477      0.64726  1_554   S
    C162   O477      0.64726      .   S
    C275   O478      1.03052      .   S
    C1     O478      1.03052      .   S
    C275   O479      0.64726  1_554   S
    C163   O479      0.64726      .   S
    C210   O480      0.62390      .   S
    C374   O480      0.62390      .   S
    C210   O481      0.55116      .   S
    C114   O481      0.55116      .   S
    C210   O482      0.64717      .   S
    C370   O482      0.64717  1_556   S
    C211   O483      0.62389      .   S
    C375   O483      0.62389      .   S
    C211   O484      0.55117      .   S
    C115   O484      0.55117      .   S
    C211   O485      0.64717      .   S
    C371   O485      0.64717  1_556   S
    C209   O486      0.62389      .   S
    C373   O486      0.62389      .   S
    C209   O487      0.55117      .   S
    C113   O487      0.55117      .   S
    C209   O488      0.64717      .   S
    C369   O488      0.64717  1_556   S
    C208   O489      0.62390      .   S
    C372   O489      0.62390      .   S
    C208   O490      0.55116      .   S
    C112   O490      0.55116      .   S
    C208   O491      0.64716      .   S
    C368   O491      0.64716  1_556   S
    C59    O492      0.55286      .   S
    C155   O492      0.55286      .   S
    C58    O493      0.55286      .   S
    C154   O493      0.55286      .   S
    C57    O494      0.55285      .   S
    C153   O494      0.55285      .   S
    C56    O495      0.55286      .   S
    C152   O495      0.55286      .   S
    C152   O496      0.64267      .   S
    C256   O496      0.64267      .   S
    C153   O497      0.64267      .   S
    C257   O497      0.64267      .   S
    C154   O498      0.64266      .   S
    C258   O498      0.64266      .   S
    C155   O499      0.64267      .   S
    C259   O499      0.64267      .   S
    C164   O500      0.64474      .   S
    C280   O500      0.64474      .   S
    C164   O501      0.62725      .   S
    C284   O501      0.62725      .   S
    C165   O502      0.64474      .   S
    C281   O502      0.64474      .   S
    C165   O503      0.62725      .   S
    C285   O503      0.62725      .   S
    C166   O504      0.64474      .   S
    C282   O504      0.64474      .   S
    C166   O505      0.62725      .   S
    C286   O505      0.62725      .   S
    C167   O506      0.64474      .   S
    C283   O506      0.64474      .   S
    C167   O507      0.62725      .   S
    C287   O507      0.62725      .   S
    C281   O508      1.04549      .   S
    C1     O508      1.04549      .   S
    C280   O509      1.04550      .   S
    C0     O509      1.04550      .   S
    C282   O510      1.04550      .   S
    C2     O510      1.04550      .   S
    C283   O511      1.04549      .   S
    C3     O511      1.04549      .   S
    C284   O512      1.03368      .   S
    C12    O512      1.03368      .   S
    C287   O513      1.03368      .   S
    C15    O513      1.03368      .   S
    C286   O514      1.03368      .   S
    C14    O514      1.03368      .   S
    C285   O515      1.03368      .   S
    C13    O515      1.03368      .   S
    C258   O516      1.08030      .   S
    C2     O516      1.08030      .   S
    C257   O517      1.08030      .   S
    C1     O517      1.08030      .   S
    C256   O518      1.08029      .   S
    C0     O518      1.08029      .   S
    C259   O519      1.08030      .   S
    C3     O519      1.08030      .   S
    C271   O520      0.62567      .   S
    C158   O520      0.62567      .   S
    C268   O521      0.62574  1_545   S
    C157   O521      0.62574      .   S
    C270   O522      0.62574  1_545   S
    C159   O522      0.62574      .   S
    C269   O523      0.62567      .   S
    C156   O523      0.62567      .   S
    C75    O524      0.55144      .   S
    C171   O524      0.55144      .   S
    C72    O525      0.55144      .   S
    C168   O525      0.55144      .   S
    C73    O526      0.55144      .   S
    C169   O526      0.55144      .   S
    C74    O527      0.55144      .   S
    C170   O527      0.55144      .   S
    C0     O528      1.07448      .   S
    C266   O528      1.07448      .   S
    C1     O529      1.07448      .   S
    C267   O529      1.07448      .   S
    C2     O530      1.07442  1_655   S
    C264   O530      1.07442      .   S
    C3     O531      1.07443  1_655   S
    C265   O531      1.07443      .   S
    C292   O532      0.62912      .   S
    C168   O532      0.62912      .   S
    C292   O533      1.02805      .   S
    C12    O533      1.02805      .   S
    C293   O534      0.62911      .   S
    C169   O534      0.62911      .   S
    C293   O535      1.02805      .   S
    C13    O535      1.02805      .   S
    C295   O536      0.62911      .   S
    C171   O536      0.62911      .   S
    C295   O537      1.02805      .   S
    C15    O537      1.02805      .   S
    C294   O538      0.62911      .   S
    C170   O538      0.62911      .   S
    C294   O539      1.02805      .   S
    C14    O539      1.02805      .   S
    C254   O540      0.62767      .   S
    C150   O540      0.62767      .   S
    C252   O541      0.62768      .   S
    C148   O541      0.62768      .   S
    C255   O542      0.62768      .   S
    C151   O542      0.62768      .   S
    C253   O543      0.62767      .   S
    C149   O543      0.62767      .   S
    C171   O544      0.64203      .   S
    C291   O544      0.64203      .   S
    C170   O545      0.64203      .   S
    C290   O545      0.64203      .   S
    C169   O546      0.64203      .   S
    C289   O546      0.64203      .   S
    C168   O547      0.64203      .   S
    C288   O547      0.64203      .   S
    C159   O548      0.64262      .   S
    C267   O548      0.64262      .   S
    C159   O549      0.55386      .   S
    C63    O549      0.55386      .   S
    C156   O550      0.64263      .   S
    C264   O550      0.64263      .   S
    C156   O551      0.55386      .   S
    C60    O551      0.55386      .   S
    C157   O552      0.64262      .   S
    C265   O552      0.64262      .   S
    C157   O553      0.55386      .   S
    C61    O553      0.55386      .   S
    C158   O554      0.64263      .   S
    C266   O554      0.64263      .   S
    C158   O555      0.55386      .   S
    C62    O555      0.55386      .   S
    C12    O556      1.08129      .   S
    C240   O556      1.08129      .   S
    C12    O557      1.06099      .   S
    C296   O557      1.06099      .   S
    C13    O558      1.08129      .   S
    C241   O558      1.08129      .   S
    C13    O559      1.06098      .   S
    C297   O559      1.06098      .   S
    C14    O560      1.08128      .   S
    C242   O560      1.08128      .   S
    C14    O561      1.06098      .   S
    C298   O561      1.06098      .   S
    C15    O562      1.08129      .   S
    C243   O562      1.08129      .   S
    C15    O563      1.06099      .   S
    C299   O563      1.06099      .   S
    C148   O564      0.64357      .   S
    C248   O564      0.64357      .   S
    C148   O565      0.55290      .   S
    C52    O565      0.55290      .   S
    C149   O566      0.64357      .   S
    C249   O566      0.64357      .   S
    C149   O567      0.55290      .   S
    C53    O567      0.55290      .   S
    C150   O568      0.64357      .   S
    C250   O568      0.64357      .   S
    C150   O569      0.55290      .   S
    C54    O569      0.55290      .   S
    C151   O570      0.64357      .   S
    C251   O570      0.64357      .   S
    C151   O571      0.55290      .   S
    C55    O571      0.55290      .   S
    C250   O572      1.05775      .   S
    C6     O572      1.05775      .   S
    C251   O573      1.05775      .   S
    C7     O573      1.05775      .   S
    C249   O574      1.05775      .   S
    C5     O574      1.05775      .   S
    C248   O575      1.05775      .   S
    C4     O575      1.05775      .   S
    C78    O576      0.55289      .   S
    C175   O576      0.55289  1_565   S
    C79    O577      0.55287      .   S
    C174   O577      0.55287      .   S
    C76    O578      0.55289      .   S
    C173   O578      0.55289  1_565   S
    C77    O579      0.55287      .   S
    C172   O579      0.55287      .   S
    C243   O580      0.64164      .   S
    C147   O580      0.64164      .   S
    C242   O581      0.64165      .   S
    C146   O581      0.64165      .   S
    C241   O582      0.64164      .   S
    C145   O582      0.64164      .   S
    C240   O583      0.64164      .   S
    C144   O583      0.64164      .   S
    C288   O584      1.07910      .   S
    C4     O584      1.07910      .   S
    C289   O585      1.07910      .   S
    C5     O585      1.07910      .   S
    C290   O586      1.07911      .   S
    C6     O586      1.07911      .   S
    C291   O587      1.07910      .   S
    C7     O587      1.07910      .   S
    C86    O588      0.55367      .   S
    C182   O588      0.55367      .   S
    C87    O589      0.55367      .   S
    C183   O589      0.55367      .   S
    C84    O590      0.55366      .   S
    C180   O590      0.55366      .   S
    C85    O591      0.55366      .   S
    C181   O591      0.55366      .   S
    C299   O592      0.64355      .   S
    C175   O592      0.64355      .   S
    C298   O593      0.64355      .   S
    C174   O593      0.64355      .   S
    C297   O594      0.64355      .   S
    C173   O594      0.64355      .   S
    C296   O595      0.64355      .   S
    C172   O595      0.64355      .   S
    C174   O596      0.62535      .   S
    C303   O596      0.62535      .   S
    C172   O597      0.62535      .   S
    C301   O597      0.62535      .   S
    C173   O598      0.62542  1_565   S
    C300   O598      0.62542      .   S
    C175   O599      0.62542  1_565   S
    C302   O599      0.62542      .   S
    C7     O600      1.02995      .   S
    C245   O600      1.02995      .   S
    C7     O601      1.03703      .   S
    C335   O601      1.03703      .   S
    C4     O602      1.02989      .   S
    C246   O602      1.02989  1_655   S
    C4     O603      1.03704      .   S
    C332   O603      1.03704      .   S
    C6     O604      1.02995      .   S
    C244   O604      1.02995      .   S
    C6     O605      1.03704      .   S
    C334   O605      1.03704      .   S
    C5     O606      1.02989      .   S
    C247   O606      1.02989  1_655   S
    C5     O607      1.03703      .   S
    C333   O607      1.03703      .   S
    C312   O608      0.64259      .   S
    C180   O608      0.64259      .   S
    C312   O609      1.07416      .   S
    C8     O609      1.07416      .   S
    C313   O610      0.64261      .   S
    C181   O610      0.64261      .   S
    C313   O611      1.07415      .   S
    C9     O611      1.07415      .   S
    C314   O612      0.64259      .   S
    C182   O612      0.64259      .   S
    C314   O613      1.07416      .   S
    C10    O613      1.07416      .   S
    C315   O614      0.64260      .   S
    C183   O614      0.64260      .   S
    C315   O615      1.07416      .   S
    C11    O615      1.07416      .   S
    C180   O616      0.62588      .   S
    C316   O616      0.62588      .   S
    C181   O617      0.62588      .   S
    C317   O617      0.62588      .   S
    C182   O618      0.62588      .   S
    C318   O618      0.62588      .   S
    C183   O619      0.62588      .   S
    C319   O619      0.62588      .   S
    C144   O620      0.62931      .   S
    C244   O620      0.62931      .   S
    C144   O621      0.55169      .   S
    C48    O621      0.55169      .   S
    C145   O622      0.62932      .   S
    C245   O622      0.62932      .   S
    C145   O623      0.55169      .   S
    C49    O623      0.55169      .   S
    C146   O624      0.62931      .   S
    C246   O624      0.62931      .   S
    C146   O625      0.55169      .   S
    C50    O625      0.55169      .   S
    C147   O626      0.62932      .   S
    C247   O626      0.62932      .   S
    C147   O627      0.55169      .   S
    C51    O627      0.55169      .   S
    C302   O628      1.05976      .   S
    C38    O628      1.05976  1_565   S
    C300   O629      1.05976      .   S
    C36    O629      1.05976  1_565   S
    C301   O630      1.05976      .   S
    C37    O630      1.05976      .   S
    C303   O631      1.05976      .   S
    C39    O631      1.05976      .   S
    C10    O632      1.07977      .   S
    C306   O632      1.07977      .   S
    C10    O633      1.04579      .   S
    C330   O633      1.04579      .   S
    C10    O634      1.03067      .   S
    C322   O634      1.03067      .   S
    C11    O635      1.07977      .   S
    C307   O635      1.07977      .   S
    C11    O636      1.04578      .   S
    C331   O636      1.04578      .   S
    C11    O637      1.03067      .   S
    C323   O637      1.03067      .   S
    C9     O638      1.07978      .   S
    C305   O638      1.07978      .   S
    C9     O639      1.04578      .   S
    C329   O639      1.04578      .   S
    C9     O640      1.03067      .   S
    C321   O640      1.03067      .   S
    C8     O641      1.07976      .   S
    C304   O641      1.07976      .   S
    C8     O642      1.04579      .   S
    C328   O642      1.04579      .   S
    C8     O643      1.03067      .   S
    C320   O643      1.03067      .   S
    C316   O644      1.04651      .   S
    C44    O644      1.04651      .   S
    C317   O645      1.04650      .   S
    C45    O645      1.04650      .   S
    C318   O646      1.04650      .   S
    C46    O646      1.04650      .   S
    C319   O647      1.04651      .   S
    C47    O647      1.04651      .   S
    C304   O648      0.64471      .   S
    C176   O648      0.64471      .   S
    C305   O649      0.64471      .   S
    C177   O649      0.64471      .   S
    C306   O650      0.64471      .   S
    C178   O650      0.64471      .   S
    C307   O651      0.64471      .   S
    C179   O651      0.64471      .   S
    C334   O652      0.62725      .   S
    C190   O652      0.62725      .   S
    C333   O653      0.62725      .   S
    C189   O653      0.62725      .   S
    C332   O654      0.62725      .   S
    C188   O654      0.62725      .   S
    C335   O655      0.62725      .   S
    C191   O655      0.62725      .   S
    C139   O656      0.55131      .   S
    C235   O656      0.55131      .   S
    C138   O657      0.55127      .   S
    C234   O657      0.55127      .   S
    C137   O658      0.55127      .   S
    C233   O658      0.55127      .   S
    C136   O659      0.55128      .   S
    C232   O659      0.55128      .   S
    C328   O660      0.64473      .   S
    C188   O660      0.64473      .   S
    C331   O661      0.64474      .   S
    C191   O661      0.64474      .   S
    C329   O662      0.64475      .   S
    C189   O662      0.64475      .   S
    C330   O663      0.64474      .   S
    C190   O663      0.64474      .   S
    C191   O664      0.55096      .   S
    C95    O664      0.55096      .   S
    C190   O665      0.55097      .   S
    C94    O665      0.55097      .   S
    C189   O666      0.55096      .   S
    C93    O666      0.55096      .   S
    C188   O667      0.55097      .   S
    C92    O667      0.55097      .   S
    C179   O668      0.55287      .   S
    C83    O668      0.55287      .   S
    C179   O669      0.62631      .   S
    C311   O669      0.62631      .   S
    C178   O670      0.55287      .   S
    C82    O670      0.55287      .   S
    C178   O671      0.62631      .   S
    C310   O671      0.62631      .   S
    C177   O672      0.55286      .   S
    C81    O672      0.55286      .   S
    C177   O673      0.62631      .   S
    C309   O673      0.62631      .   S
    C176   O674      0.55287      .   S
    C80    O674      0.55287      .   S
    C176   O675      0.62631      .   S
    C308   O675      0.62631      .   S
    C420   O676      0.62385      .   S
    C232   O676      0.62385      .   S
    C420   O677      1.06292      .   S
    C44    O677      1.06292      .   S
    C421   O678      0.62386      .   S
    C233   O678      0.62386      .   S
    C421   O679      1.06293      .   S
    C45    O679      1.06293      .   S
    C422   O680      0.62385      .   S
    C234   O680      0.62385      .   S
    C422   O681      1.06292      .   S
    C46    O681      1.06292      .   S
    C423   O682      0.62387      .   S
    C235   O682      0.62387      .   S
    C423   O683      1.06292      .   S
    C47    O683      1.06292      .   S
    C234   O684      0.64729      .   S
    C418   O684      0.64729      .   S
    C233   O685      0.64728      .   S
    C417   O685      0.64728      .   S
    C232   O686      0.64728      .   S
    C416   O686      0.64728      .   S
    C235   O687      0.64724      .   S
    C419   O687      0.64724      .   S
    C320   O688      0.64724      .   S
    C184   O688      0.64724      .   S
    C321   O689      0.64724      .   S
    C185   O689      0.64724      .   S
    C322   O690      0.64724      .   S
    C186   O690      0.64724      .   S
    C323   O691      0.64724      .   S
    C187   O691      0.64724      .   S
    C311   O692      1.05205      .   S
    C38    O692      1.05205      .   S
    C308   O693      1.05212      .   S
    C37    O693      1.05212      .   S
    C309   O694      1.05205      .   S
    C36    O694      1.05205      .   S
    C310   O695      1.05212      .   S
    C39    O695      1.05212      .   S
    C36    O696      1.05212  1_565   S
    C404   O696      1.05212      .   S
    C36    O697      1.05956      .   S
    C397   O697      1.05956      .   S
    C47    O698      1.06280      .   S
    C327   O698      1.06280      .   S
    C47    O699      1.04645      .   S
    C415   O699      1.04645      .   S
    C46    O700      1.06281      .   S
    C326   O700      1.06281      .   S
    C46    O701      1.04645      .   S
    C414   O701      1.04645      .   S
    C45    O702      1.06280      .   S
    C325   O702      1.06280      .   S
    C45    O703      1.04645      .   S
    C413   O703      1.04645      .   S
    C44    O704      1.06281      .   S
    C324   O704      1.06281      .   S
    C44    O705      1.04645      .   S
    C412   O705      1.04645      .   S
    C39    O706      1.05212      .   S
    C407   O706      1.05212      .   S
    C39    O707      1.05954      .   S
    C398   O707      1.05954      .   S
    C38    O708      1.05212  1_565   S
    C406   O708      1.05212      .   S
    C38    O709      1.05956      .   S
    C399   O709      1.05956      .   S
    C37    O710      1.05213      .   S
    C405   O710      1.05213      .   S
    C37    O711      1.05954      .   S
    C396   O711      1.05954      .   S
    C404   O712      0.62653      .   S
    C224   O712      0.62653      .   S
    C405   O713      0.62654      .   S
    C225   O713      0.62654      .   S
    C406   O714      0.62653      .   S
    C226   O714      0.62653      .   S
    C407   O715      0.62653      .   S
    C227   O715      0.62653      .   S
    C143   O716      0.55096      .   S
    C239   O716      0.55096      .   S
    C142   O717      0.55096      .   S
    C238   O717      0.55096      .   S
    C141   O718      0.55096      .   S
    C237   O718      0.55096      .   S
    C140   O719      0.55096      .   S
    C236   O719      0.55096      .   S
    C419   O720      1.03067      .   S
    C27    O720      1.03067      .   S
    C418   O721      1.03067      .   S
    C26    O721      1.03067      .   S
    C417   O722      1.03067      .   S
    C25    O722      1.03067      .   S
    C416   O723      1.03067      .   S
    C24    O723      1.03067      .   S
    C186   O724      0.62384      .   S
    C326   O724      0.62384      .   S
    C186   O725      0.55131      .   S
    C90    O725      0.55131      .   S
    C187   O726      0.62384      .   S
    C327   O726      0.62384      .   S
    C187   O727      0.55132      .   S
    C91    O727      0.55132      .   S
    C185   O728      0.62384      .   S
    C325   O728      0.62384      .   S
    C185   O729      0.55131      .   S
    C89    O729      0.55131      .   S
    C184   O730      0.62384      .   S
    C324   O730      0.62384      .   S
    C184   O731      0.55131      .   S
    C88    O731      0.55131      .   S
    C128   O732      0.55287      .   S
    C224   O732      0.55287      .   S
    C129   O733      0.55286      .   S
    C225   O733      0.55286      .   S
    C130   O734      0.55287      .   S
    C226   O734      0.55287      .   S
    C131   O735      0.55287      .   S
    C227   O735      0.55287      .   S
    C227   O736      0.64471      .   S
    C403   O736      0.64471      .   S
    C224   O737      0.64471      .   S
    C400   O737      0.64471      .   S
    C225   O738      0.64471      .   S
    C401   O738      0.64471      .   S
    C226   O739      0.64471      .   S
    C402   O739      0.64471      .   S
    C237   O740      0.64475      .   S
    C425   O740      0.64475      .   S
    C237   O741      0.62725      .   S
    C429   O741      0.62725      .   S
    C236   O742      0.64475      .   S
    C424   O742      0.64475      .   S
    C236   O743      0.62725      .   S
    C428   O743      0.62725      .   S
    C239   O744      0.64475      .   S
    C427   O744      0.64475      .   S
    C239   O745      0.62725      .   S
    C431   O745      0.62725      .   S
    C238   O746      0.64475      .   S
    C426   O746      0.64475      .   S
    C238   O747      0.62725      .   S
    C430   O747      0.62725      .   S
    C424   O748      1.04578      .   S
    C24    O748      1.04578      .   S
    C425   O749      1.04578      .   S
    C25    O749      1.04578      .   S
    C426   O750      1.04578      .   S
    C26    O750      1.04578      .   S
    C427   O751      1.04578      .   S
    C27    O751      1.04578      .   S
    C430   O752      1.03350      .   S
    C22    O752      1.03350      .   S
    C429   O753      1.03351      .   S
    C21    O753      1.03351      .   S
    C428   O754      1.03350      .   S
    C20    O754      1.03350      .   S
    C431   O755      1.03351      .   S
    C23    O755      1.03351      .   S
    C403   O756      1.07978      .   S
    C27    O756      1.07978      .   S
    C402   O757      1.07977      .   S
    C26    O757      1.07977      .   S
    C401   O758      1.07978      .   S
    C25    O758      1.07978      .   S
    C400   O759      1.07978      .   S
    C24    O759      1.07978      .   S
    C415   O760      0.62588      .   S
    C231   O760      0.62588      .   S
    C414   O761      0.62587      .   S
    C230   O761      0.62587      .   S
    C413   O762      0.62588      .   S
    C229   O762      0.62588      .   S
    C412   O763      0.62587      .   S
    C228   O763      0.62587      .   S
    C99    O764      0.55143      .   S
    C195   O764      0.55143      .   S
    C98    O765      0.55143      .   S
    C194   O765      0.55143      .   S
    C97    O766      0.55143      .   S
    C193   O766      0.55143      .   S
    C96    O767      0.55143      .   S
    C192   O767      0.55143      .   S
    C24    O768      1.07416      .   S
    C408   O768      1.07416      .   S
    C25    O769      1.07416      .   S
    C409   O769      1.07416      .   S
    C26    O770      1.07416      .   S
    C410   O770      1.07416      .   S
    C27    O771      1.07416      .   S
    C411   O771      1.07416      .   S
    C340   O772      0.62912      .   S
    C192   O772      0.62912      .   S
    C340   O773      1.02785  1_455   S
    C22    O773      1.02785      .   S
    C341   O774      0.62913      .   S
    C193   O774      0.62913      .   S
    C341   O775      1.02785  1_455   S
    C23    O775      1.02785      .   S
    C342   O776      0.62912      .   S
    C194   O776      0.62912      .   S
    C342   O777      1.02791      .   S
    C20    O777      1.02791      .   S
    C343   O778      0.62912      .   S
    C195   O778      0.62912      .   S
    C343   O779      1.02791      .   S
    C21    O779      1.02791      .   S
    C396   O780      0.62547      .   S
    C221   O780      0.62547      .   S
    C399   O781      0.62554      .   S
    C222   O781      0.62554  1_545   S
    C398   O782      0.62547      .   S
    C223   O782      0.62547      .   S
    C397   O783      0.62554      .   S
    C220   O783      0.62554  1_545   S
    C192   O784      0.64207      .   S
    C336   O784      0.64207      .   S
    C193   O785      0.64207      .   S
    C337   O785      0.64207      .   S
    C194   O786      0.64207      .   S
    C338   O786      0.64207      .   S
    C195   O787      0.64207      .   S
    C339   O787      0.64207      .   S
    C231   O788      0.64259      .   S
    C411   O788      0.64259      .   S
    C231   O789      0.55366      .   S
    C135   O789      0.55366      .   S
    C230   O790      0.64261      .   S
    C410   O790      0.64261      .   S
    C230   O791      0.55366      .   S
    C134   O791      0.55366      .   S
    C229   O792      0.64259      .   S
    C409   O792      0.64259      .   S
    C229   O793      0.55366      .   S
    C133   O793      0.55366      .   S
    C228   O794      0.64261      .   S
    C408   O794      0.64261      .   S
    C228   O795      0.55366      .   S
    C132   O795      0.55366      .   S
    C20    O796      1.08101      .   S
    C384   O796      1.08101      .   S
    C20    O797      1.06107      .   S
    C344   O797      1.06107      .   S
    C21    O798      1.08100      .   S
    C385   O798      1.08100      .   S
    C21    O799      1.06108      .   S
    C345   O799      1.06108      .   S
    C22    O800      1.08100      .   S
    C386   O800      1.08100      .   S
    C22    O801      1.06107      .   S
    C346   O801      1.06107      .   S
    C23    O802      1.08101      .   S
    C387   O802      1.08101      .   S
    C23    O803      1.06107      .   S
    C347   O803      1.06107      .   S
    C223   O804      0.64355      .   S
    C395   O804      0.64355      .   S
    C223   O805      0.55287      .   S
    C126   O805      0.55287      .   S
    C221   O806      0.64355      .   S
    C393   O806      0.64355      .   S
    C221   O807      0.55287      .   S
    C124   O807      0.55287      .   S
    C220   O808      0.64355      .   S
    C392   O808      0.64355      .   S
    C220   O809      0.55290  1_545   S
    C125   O809      0.55290      .   S
    C222   O810      0.64355      .   S
    C394   O810      0.64355      .   S
    C222   O811      0.55290  1_545   S
    C127   O811      0.55290      .   S
    C394   O812      1.06098      .   S
    C30    O812      1.06098      .   S
    C395   O813      1.06098      .   S
    C31    O813      1.06098      .   S
    C392   O814      1.06099      .   S
    C28    O814      1.06099      .   S
    C393   O815      1.06098      .   S
    C29    O815      1.06098      .   S
    C103   O816      0.55290      .   S
    C199   O816      0.55290      .   S
    C102   O817      0.55290      .   S
    C198   O817      0.55290      .   S
    C100   O818      0.55290      .   S
    C196   O818      0.55290      .   S
    C101   O819      0.55290      .   S
    C197   O819      0.55290      .   S
    C384   O820      0.64160      .   S
    C216   O820      0.64160      .   S
    C386   O821      0.64161      .   S
    C218   O821      0.64161      .   S
    C385   O822      0.64161      .   S
    C217   O822      0.64161      .   S
    C387   O823      0.64160      .   S
    C219   O823      0.64160      .   S
    C336   O824      1.08128      .   S
    C28    O824      1.08128      .   S
    C337   O825      1.08129      .   S
    C29    O825      1.08129      .   S
    C338   O826      1.08129      .   S
    C30    O826      1.08129      .   S
    C339   O827      1.08129      .   S
    C31    O827      1.08129      .   S
    C108   O828      0.55366      .   S
    C204   O828      0.55366      .   S
    C109   O829      0.55366      .   S
    C205   O829      0.55366      .   S
    C110   O830      0.55365      .   S
    C206   O830      0.55365      .   S
    C111   O831      0.55366      .   S
    C207   O831      0.55366      .   S
    C344   O832      0.64358      .   S
    C196   O832      0.64358      .   S
    C345   O833      0.64357      .   S
    C197   O833      0.64357      .   S
    C346   O834      0.64358      .   S
    C198   O834      0.64358      .   S
    C347   O835      0.64357      .   S
    C199   O835      0.64357      .   S
    C196   O836      0.62530      .   S
    C348   O836      0.62530      .   S
    C199   O837      0.62531      .   S
    C351   O837      0.62531      .   S
    C198   O838      0.62530      .   S
    C350   O838      0.62530      .   S
    C197   O839      0.62531      .   S
    C349   O839      0.62531      .   S
    C28    O840      1.02805      .   S
    C388   O840      1.02805      .   S
    C28    O841      1.03373      .   S
    C380   O841      1.03373      .   S
    C29    O842      1.02805      .   S
    C389   O842      1.02805      .   S
    C29    O843      1.03373      .   S
    C381   O843      1.03373      .   S
    C30    O844      1.02805      .   S
    C390   O844      1.02805      .   S
    C30    O845      1.03373      .   S
    C382   O845      1.03373      .   S
    C31    O846      1.02805      .   S
    C391   O846      1.02805      .   S
    C31    O847      1.03373      .   S
    C383   O847      1.03373      .   S
    C363   O848      0.64258      .   S
    C207   O848      0.64258      .   S
    C363   O849      1.07436      .   S
    C17    O849      1.07436  1_455   S
    C362   O850      0.64259      .   S
    C206   O850      0.64259      .   S
    C362   O851      1.07436      .   S
    C16    O851      1.07436  1_455   S
    C361   O852      0.64257      .   S
    C205   O852      0.64257      .   S
    C361   O853      1.07442      .   S
    C19    O853      1.07442      .   S
    C360   O854      0.64258      .   S
    C204   O854      0.64258      .   S
    C360   O855      1.07441      .   S
    C18    O855      1.07441      .   S
    C207   O856      0.62590      .   S
    C366   O856      0.62590      .   S
    C206   O857      0.62596      .   S
    C367   O857      0.62596  1_565   S
    C205   O858      0.62589      .   S
    C364   O858      0.62589      .   S
    C204   O859      0.62597      .   S
    C365   O859      0.62597  1_565   S
    C218   O860      0.62930      .   S
    C390   O860      0.62930      .   S
    C218   O861      0.55170      .   S
    C122   O861      0.55170      .   S
    C216   O862      0.62931      .   S
    C388   O862      0.62931      .   S
    C216   O863      0.55169      .   S
    C120   O863      0.55169      .   S
    C217   O864      0.62930      .   S
    C389   O864      0.62930      .   S
    C217   O865      0.55169      .   S
    C121   O865      0.55169      .   S
    C219   O866      0.62930      .   S
    C391   O866      0.62930      .   S
    C219   O867      0.55169      .   S
    C123   O867      0.55169      .   S
    C16    O868      1.08001      .   S
    C352   O868      1.08001      .   S
    C16    O869      1.04557      .   S
    C376   O869      1.04557      .   S
    C16    O870      1.03060      .   S
    C370   O870      1.03060  1_655   S
    C17    O871      1.08001      .   S
    C353   O871      1.08001      .   S
    C17    O872      1.04556      .   S
    C377   O872      1.04556      .   S
    C17    O873      1.03060      .   S
    C371   O873      1.03060  1_655   S
    C18    O874      1.08001      .   S
    C354   O874      1.08001      .   S
    C18    O875      1.04557      .   S
    C378   O875      1.04557      .   S
    C18    O876      1.03063      .   S
    C368   O876      1.03063      .   S
    C19    O877      1.08001      .   S
    C355   O877      1.08001      .   S
    C19    O878      1.04556      .   S
    C379   O878      1.04556      .   S
    C19    O879      1.03064      .   S
    C369   O879      1.03064      .   S
    C355   O880      0.64467      .   S
    C203   O880      0.64467      .   S
    C354   O881      0.64466      .   S
    C202   O881      0.64466      .   S
    C353   O882      0.64467      .   S
    C201   O882      0.64467      .   S
    C352   O883      0.64467      .   S
    C200   O883      0.64467      .   S
    C382   O884      0.62722      .   S
    C214   O884      0.62722      .   S
    C381   O885      0.62722      .   S
    C213   O885      0.62722      .   S
    C383   O886      0.62722      .   S
    C215   O886      0.62722      .   S
    C380   O887      0.62722      .   S
    C212   O887      0.62722      .   S
    C64    O888      0.55135      .   S
    C160   O888      0.55135      .   S
    C65    O889      0.55133      .   S
    C161   O889      0.55133      .   S
    C66    O890      0.55135      .   S
    C162   O890      0.55135      .   S
    C67    O891      0.55134      .   S
    C163   O891      0.55134      .   S
    C378   O892      0.64474      .   S
    C214   O892      0.64474      .   S
    C379   O893      0.64474      .   S
    C215   O893      0.64474      .   S
    C377   O894      0.64474      .   S
    C213   O894      0.64474      .   S
    C376   O895      0.64474      .   S
    C212   O895      0.64474      .   S
    C215   O896      0.55103      .   S
    C119   O896      0.55103      .   S
    C214   O897      0.55102      .   S
    C118   O897      0.55102  1_565   S
    C213   O898      0.55103      .   S
    C117   O898      0.55103      .   S
    C212   O899      0.55102      .   S
    C116   O899      0.55102  1_565   S
    C203   O900      0.55285      .   S
    C107   O900      0.55285      .   S
    C203   O901      0.62658      .   S
    C359   O901      0.62658      .   S
    C202   O902      0.55285      .   S
    C106   O902      0.55285      .   S
    C202   O903      0.62658      .   S
    C358   O903      0.62658      .   S
    C201   O904      0.55284      .   S
    C105   O904      0.55284      .   S
    C201   O905      0.62658      .   S
    C357   O905      0.62658      .   S
    C200   O906      0.55286      .   S
    C104   O906      0.55286      .   S
    C200   O907      0.62658      .   S
    C356   O907      0.62658      .   S
    C276   O908      0.62388      .   S
    C160   O908      0.62388      .   S
    C277   O909      0.62389      .   S
    C161   O909      0.62389      .   S
    C278   O910      0.62388      .   S
    C162   O910      0.62388      .   S
    C279   O911      0.62389      .   S
    C163   O911      0.62389      .   S
    C240   O912      1.08150      .   S
    C0     O912      1.08150      .   S
    C241   O913      1.08151      .   S
    C1     O913      1.08151      .   S
    C242   O914      1.08151      .   S
    C2     O914      1.08151      .   S
    C243   O915      1.08150      .   S
    C3     O915      1.08150      .   S
    C248   O916      1.06784  1_455   S
    C2     O916      1.06784      .   S
    C249   O917      1.06785  1_455   S
    C3     O917      1.06785      .   S
    C250   O918      1.06787      .   S
    C0     O918      1.06787      .   S
    C251   O919      1.06788      .   S
    C1     O919      1.06788      .   S
    C256   O920      1.08572      .   S
    C12    O920      1.08572      .   S
    C257   O921      1.08572      .   S
    C13    O921      1.08572      .   S
    C258   O922      1.08572      .   S
    C14    O922      1.08572      .   S
    C259   O923      1.08572      .   S
    C15    O923      1.08572      .   S
    C264   O924      1.09462      .   S
    C4     O924      1.09462      .   S
    C265   O925      1.09462      .   S
    C5     O925      1.09462      .   S
    C266   O926      1.09462      .   S
    C6     O926      1.09462      .   S
    C267   O927      1.09462      .   S
    C7     O927      1.09462      .   S
    C272   O928      1.09039      .   S
    C32    O928      1.09039      .   S
    C273   O929      1.09038      .   S
    C33    O929      1.09038      .   S
    C274   O930      1.09039      .   S
    C34    O930      1.09039      .   S
    C275   O931      1.09038      .   S
    C35    O931      1.09038      .   S
    C280   O932      1.08680      .   S
    C43    O932      1.08680      .   S
    C281   O933      1.08680      .   S
    C42    O933      1.08680  1_545   S
    C282   O934      1.08673      .   S
    C41    O934      1.08673  1_455   S
    C283   O935      1.08674      .   S
    C40    O935      1.08674  1_445   S
    C288   O936      1.08131      .   S
    C8     O936      1.08131      .   S
    C289   O937      1.08131      .   S
    C9     O937      1.08131      .   S
    C290   O938      1.08131      .   S
    C10    O938      1.08131      .   S
    C291   O939      1.08131      .   S
    C11    O939      1.08131      .   S
    C296   O940      1.06802      .   S
    C8     O940      1.06802      .   S
    C297   O941      1.06802      .   S
    C9     O941      1.06802      .   S
    C298   O942      1.06802      .   S
    C10    O942      1.06802      .   S
    C299   O943      1.06802      .   S
    C11    O943      1.06802      .   S
    C304   O944      1.08733      .   S
    C4     O944      1.08733      .   S
    C305   O945      1.08733      .   S
    C5     O945      1.08733      .   S
    C306   O946      1.08733      .   S
    C6     O946      1.08733      .   S
    C307   O947      1.08733      .   S
    C7     O947      1.08733      .   S
    C312   O948      1.09898      .   S
    C12    O948      1.09898      .   S
    C313   O949      1.09897      .   S
    C13    O949      1.09897      .   S
    C314   O950      1.09898      .   S
    C14    O950      1.09898      .   S
    C315   O951      1.09897      .   S
    C15    O951      1.09897      .   S
    C320   O952      1.09032      .   S
    C37    O952      1.09032      .   S
    C321   O953      1.09042      .   S
    C36    O953      1.09042      .   S
    C322   O954      1.09032      .   S
    C39    O954      1.09032      .   S
    C323   O955      1.09042      .   S
    C38    O955      1.09042      .   S
    C328   O956      1.08636      .   S
    C44    O956      1.08636      .   S
    C329   O957      1.08636      .   S
    C45    O957      1.08636      .   S
    C330   O958      1.08636      .   S
    C46    O958      1.08636      .   S
    C331   O959      1.08636      .   S
    C47    O959      1.08636      .   S
    C336   O960      1.08139      .   S
    C16    O960      1.08139      .   S
    C337   O961      1.08139      .   S
    C17    O961      1.08139      .   S
    C338   O962      1.08139      .   S
    C18    O962      1.08139      .   S
    C339   O963      1.08139      .   S
    C19    O963      1.08139      .   S
    C344   O964      1.06778      .   S
    C18    O964      1.06778      .   S
    C345   O965      1.06779      .   S
    C19    O965      1.06779      .   S
    C346   O966      1.06775  1_655   S
    C16    O966      1.06775      .   S
    C347   O967      1.06776  1_655   S
    C17    O967      1.06776      .   S
    C352   O968      1.08418      .   S
    C28    O968      1.08418      .   S
    C353   O969      1.08418      .   S
    C29    O969      1.08418      .   S
    C354   O970      1.08418      .   S
    C30    O970      1.08418      .   S
    C355   O971      1.08418      .   S
    C31    O971      1.08418      .   S
    C360   O972      1.09876      .   S
    C20    O972      1.09876      .   S
    C361   O973      1.09876      .   S
    C21    O973      1.09876      .   S
    C362   O974      1.09877      .   S
    C22    O974      1.09877      .   S
    C363   O975      1.09876      .   S
    C23    O975      1.09876      .   S
    C368   O976      1.09047      .   S
    C34    O976      1.09047  1_554   S
    C369   O977      1.09047      .   S
    C35    O977      1.09047  1_554   S
    C370   O978      1.09046      .   S
    C32    O978      1.09046  1_454   S
    C371   O979      1.09046      .   S
    C33    O979      1.09046  1_454   S
    C376   O980      1.08688      .   S
    C40    O980      1.08688  1_554   S
    C377   O981      1.08692      .   S
    C41    O981      1.08692  1_554   S
    C378   O982      1.08688      .   S
    C42    O982      1.08688  1_554   S
    C379   O983      1.08689      .   S
    C43    O983      1.08689  1_554   S
    C384   O984      1.08131      .   S
    C24    O984      1.08131      .   S
    C385   O985      1.08131      .   S
    C25    O985      1.08131      .   S
    C386   O986      1.08131      .   S
    C26    O986      1.08131      .   S
    C387   O987      1.08131      .   S
    C27    O987      1.08131      .   S
    C392   O988      1.06802      .   S
    C24    O988      1.06802      .   S
    C393   O989      1.06802      .   S
    C25    O989      1.06802      .   S
    C394   O990      1.06802      .   S
    C26    O990      1.06802      .   S
    C395   O991      1.06802      .   S
    C27    O991      1.06802      .   S
    C400   O992      1.08461      .   S
    C20    O992      1.08461      .   S
    C401   O993      1.08461      .   S
    C21    O993      1.08461      .   S
    C402   O994      1.08461      .   S
    C22    O994      1.08461      .   S
    C403   O995      1.08461      .   S
    C23    O995      1.08461      .   S
    C408   O996      1.09897      .   S
    C28    O996      1.09897      .   S
    C409   O997      1.09898      .   S
    C29    O997      1.09898      .   S
    C410   O998      1.09897      .   S
    C30    O998      1.09897      .   S
    C411   O999      1.09898      .   S
    C31    O999      1.09898      .   S
    C416   O1000     1.09032      .   S
    C36    O1000     1.09032  1_565   S
    C417   O1001     1.09032      .   S
    C37    O1001     1.09032      .   S
    C418   O1002     1.09032      .   S
    C38    O1002     1.09032  1_565   S
    C419   O1003     1.09032      .   S
    C39    O1003     1.09032      .   S
    C424   O1004     1.08632      .   S
    C44    O1004     1.08632      .   S
    C425   O1005     1.08632      .   S
    C45    O1005     1.08632      .   S
    C426   O1006     1.08632      .   S
    C46    O1006     1.08632      .   S
    C427   O1007     1.08633      .   S
    C47    O1007     1.08633      .   S
