# CIF file generated by openbabel 2.4.90, see http://openbabel.sf.net
data_I
_chemical_name_common ''
_cell_length_a 18.077
_cell_length_b 18.099
_cell_length_c 19.129
_cell_angle_alpha 89.93
_cell_angle_beta 90.006
_cell_angle_gamma 120.048
_space_group_name_H-M_alt 'P 1'
_space_group_name_Hall 'P 1'
loop_
    _symmetry_equiv_pos_as_xyz
    x,y,z
loop_
    _atom_site_label
    _atom_site_type_symbol
    _atom_site_fract_x
    _atom_site_fract_y
    _atom_site_fract_z
    _atom_site_occupancy
    Lv0     Lv   0.56007   0.97832   0.96567   1.000
    Lv1     Lv   0.58167   0.02188   0.03430   1.000
    Lv2     Lv   0.03815   0.37286   0.52270   1.000
    Lv3     Lv   0.96129   0.33436   0.47763   1.000
    Lv4     Lv   0.02155   0.58244   0.96559   1.000
    Lv5     Lv   0.97784   0.56067   0.03429   1.000
    Lv6     Lv   0.33424   0.96140   0.52260   1.000
    Lv7     Lv   0.37263   0.03835   0.47756   1.000
    Lv8     Lv   0.43914   0.41775   0.03436   1.000
    Lv9     Lv   0.41739   0.43964   0.96564   1.000
    Lv10    Lv   0.62711   0.66573   0.52210   1.000
    Lv11    Lv   0.66545   0.62712   0.47722   1.000
