# CIF file generated by openbabel 2.4.90, see http://openbabel.sf.net
data_I
_chemical_name_common ''
_cell_length_a 18.077
_cell_length_b 18.099
_cell_length_c 19.129
_cell_angle_alpha 89.93
_cell_angle_beta 90.006
_cell_angle_gamma 120.048
_space_group_name_H-M_alt 'P 1'
_space_group_name_Hall 'P 1'
loop_
    _symmetry_equiv_pos_as_xyz
    x,y,z
loop_
    _atom_site_label
    _atom_site_type_symbol
    _atom_site_fract_x
    _atom_site_fract_y
    _atom_site_fract_z
    _atom_site_occupancy
    C0      C    0.96129   0.33436   0.47763   1.000
    C1      C    0.97784   0.56067   0.03429   1.000
    C2      C    0.37263   0.03835   0.47756   1.000
    C3      C    0.58167   0.02188   0.03430   1.000
    C4      C    0.66545   0.62712   0.47722   1.000
    C5      C    0.43914   0.41775   0.03436   1.000
    C6      C    0.62711   0.66573   0.52210   1.000
    C7      C    0.41739   0.43964   0.96564   1.000
    C8      C    0.33424   0.96140   0.52260   1.000
    C9      C    0.56007   0.97832   0.96567   1.000
    C10     C    0.03815   0.37286   0.52270   1.000
    C11     C    0.02155   0.58244   0.96559   1.000
loop_
    _geom_bond_atom_site_label_1
    _geom_bond_atom_site_label_2
    _geom_bond_distance
    _geom_bond_site_symmetry_2
    _ccdc_geom_bond_type
    C1     C11       1.48110  1_654   S
    C3     C9        1.48044  1_544   S
    C5     C7        1.48132  1_554   S
    C4     C6        1.48080      .   S
    C2     C8        1.48078  1_545   S
    C0     C10       1.48020  1_655   S
