# CIF file generated by openbabel 2.4.90, see http://openbabel.sf.net
data_I
_chemical_name_common ''
_cell_length_a 18.077
_cell_length_b 18.099
_cell_length_c 19.129
_cell_angle_alpha 89.93
_cell_angle_beta 90.006
_cell_angle_gamma 120.048
_space_group_name_H-M_alt 'P 1'
_space_group_name_Hall 'P 1'
loop_
    _symmetry_equiv_pos_as_xyz
    x,y,z
loop_
    _atom_site_label
    _atom_site_type_symbol
    _atom_site_fract_x
    _atom_site_fract_y
    _atom_site_fract_z
    _atom_site_occupancy
    Zn0     Zn   0.63580   0.12466   0.33008   1.000
    Zn1     Zn   0.48849   0.36409   0.33019   1.000
    Zn2     Zn   0.36416   0.48940   0.66975   1.000
    Zn3     Zn   0.51163   0.87560   0.66969   1.000
    Zn4     Zn   0.12459   0.63594   0.66987   1.000
    Zn5     Zn   0.66628   0.33318   0.26410   1.000
    Zn6     Zn   0.66601   0.33311   0.06940   1.000
    Zn7     Zn   0.33354   0.66694   0.73581   1.000
    Zn8     Zn   0.33328   0.66665   0.93058   1.000
    Zn9     Zn   0.87488   0.51091   0.33033   1.000
    C10     C    0.86593   0.34794   0.39893   1.000
    C11     C    0.81290   0.25820   0.39653   1.000
    C12     C    0.90236   0.51953   0.16671   1.000
    C13     C    0.85554   0.47629   0.10634   1.000
    C14     C    0.48173   0.13381   0.39891   1.000
    C15     C    0.44499   0.18679   0.39654   1.000
    C16     C    0.61604   0.09710   0.16670   1.000
    C17     C    0.61966   0.14395   0.10629   1.000
    C18     C    0.65158   0.51800   0.39883   1.000
    C19     C    0.74139   0.55443   0.39667   1.000
    C20     C    0.48019   0.38340   0.16678   1.000
    C21     C    0.52325   0.37959   0.10630   1.000
    C22     C    0.51803   0.65232   0.60060   1.000
    C23     C    0.55521   0.74208   0.60321   1.000
    C24     C    0.38336   0.48092   0.83320   1.000
    C25     C    0.37970   0.52404   0.89357   1.000
    C26     C    0.34820   0.86629   0.60128   1.000
    C27     C    0.25840   0.81276   0.60331   1.000
    C28     C    0.51984   0.90300   0.83332   1.000
    C29     C    0.47625   0.85615   0.89366   1.000
    C30     C    0.13346   0.48192   0.60124   1.000
    C31     C    0.18667   0.44542   0.60360   1.000
    C32     C    0.09698   0.61635   0.83320   1.000
    C33     C    0.14396   0.62056   0.89368   1.000
    N34     N    0.74583   0.24142   0.35366   1.000
    N35     N    0.75713   0.31660   0.33100   1.000
    N36     N    0.82907   0.38180   0.35711   1.000
    N37     N    0.84909   0.48407   0.22266   1.000
    N38     N    0.77387   0.42232   0.19805   1.000
    N39     N    0.77568   0.41612   0.12829   1.000
    N40     N    0.49526   0.25382   0.35361   1.000
    N41     N    0.55922   0.24260   0.33105   1.000
    N42     N    0.55256   0.17075   0.35716   1.000
    N43     N    0.63394   0.15027   0.22261   1.000
    N44     N    0.64763   0.22551   0.19794   1.000
    N45     N    0.63961   0.22376   0.12817   1.000
    N46     N    0.75807   0.50414   0.35388   1.000
    N47     N    0.68277   0.44037   0.33123   1.000
    N48     N    0.61757   0.44724   0.35716   1.000
    N49     N    0.51554   0.36549   0.22270   1.000
    N50     N    0.57710   0.35176   0.19805   1.000
    N51     N    0.58323   0.35970   0.12820   1.000
    N52     N    0.50509   0.75892   0.64619   1.000
    N53     N    0.44082   0.68371   0.66862   1.000
    N54     N    0.44714   0.61847   0.64232   1.000
    N55     N    0.36561   0.51637   0.77724   1.000
    N56     N    0.35210   0.57800   0.80180   1.000
    N57     N    0.36005   0.58413   0.87160   1.000
    N58     N    0.24173   0.74568   0.64609   1.000
    N59     N    0.31702   0.75741   0.66899   1.000
    N60     N    0.38222   0.82965   0.64318   1.000
    N61     N    0.48474   0.84978   0.77740   1.000
    N62     N    0.42290   0.77457   0.80200   1.000
    N63     N    0.41630   0.77635   0.87173   1.000
    N64     N    0.25370   0.49573   0.64647   1.000
    N65     N    0.24234   0.55955   0.66894   1.000
    N66     N    0.17035   0.55270   0.64286   1.000
    N67     N    0.15028   0.63410   0.77729   1.000
    N68     N    0.22570   0.64819   0.80201   1.000
    N69     N    0.22394   0.64061   0.87183   1.000
    Ts70    Ts   0.89085   0.36098   0.41237   1.000
    Ts71    Ts   0.81989   0.24031   0.40918   1.000
    Ts72    Ts   0.93092   0.54148   0.16506   1.000
    Ts73    Ts   0.86788   0.48299   0.08406   1.000
    Ts74    Ts   0.46981   0.10886   0.41233   1.000
    Ts75    Ts   0.42010   0.17979   0.40921   1.000
    Ts76    Ts   0.60943   0.06859   0.16507   1.000
    Ts77    Ts   0.61398   0.13164   0.08402   1.000
    Ts78    Ts   0.63858   0.52999   0.41216   1.000
    Ts79    Ts   0.75933   0.57924   0.40935   1.000
    Ts80    Ts   0.45833   0.39011   0.16512   1.000
    Ts81    Ts   0.51655   0.38522   0.08404   1.000
    Ts82    Ts   0.52985   0.63925   0.58717   1.000
    Ts83    Ts   0.58017   0.75994   0.59058   1.000
    Ts84    Ts   0.38993   0.45899   0.83485   1.000
    Ts85    Ts   0.38530   0.51732   0.91586   1.000
    Ts86    Ts   0.36119   0.89127   0.58790   1.000
    Ts87    Ts   0.24044   0.81960   0.59060   1.000
    Ts88    Ts   0.54174   0.93156   0.83497   1.000
    Ts89    Ts   0.48280   0.86846   0.91593   1.000
    Ts90    Ts   0.10849   0.46996   0.58785   1.000
    Ts91    Ts   0.17975   0.42059   0.59097   1.000
    Ts92    Ts   0.06838   0.60961   0.83480   1.000
    Ts93    Ts   0.13162   0.61498   0.91596   1.000
loop_
    _geom_bond_atom_site_label_1
    _geom_bond_atom_site_label_2
    _geom_bond_distance
    _geom_bond_site_symmetry_2
    _ccdc_geom_bond_type
    Zn6    N45       2.11129      .   S
    Zn6    N51       2.11169      .   S
    Zn6    N39       2.11598      .   S
    C17    N45       1.36796      .   S
    C17    C16       1.41444      .   S
    C21    N51       1.36785      .   S
    C21    C20       1.41540      .   S
    C13    N39       1.36773      .   S
    C13    C12       1.41463      .   S
    N45    N44       1.34117      .   S
    N51    N50       1.34234      .   S
    N39    N38       1.34106      .   S
    C16    N43       1.36567      .   S
    C12    N37       1.36540      .   S
    C20    N49       1.36541      .   S
    N44    N43       1.34150      .   S
    N44    Zn5       2.20458      .   S
    N38    N37       1.34124      .   S
    N38    Zn5       2.19887      .   S
    N50    N49       1.34151      .   S
    N50    Zn5       2.20233      .   S
    N43    Zn0       2.11079      .   S
    N37    Zn9       2.11441      .   S
    N49    Zn1       2.11076      .   S
    Zn5    N35       2.21726      .   S
    Zn5    N41       2.21162      .   S
    Zn5    N47       2.22013      .   S
    Zn0    N34       2.10193      .   S
    Zn0    N42       2.11806      .   S
    Zn1    N40       2.10737      .   S
    Zn1    N48       2.11204      .   S
    Zn9    N46       2.10171      .   S
    Zn9    N36       2.11367      .   S
    N35    N34       1.34224      .   S
    N35    N36       1.34078      .   S
    N41    N40       1.34172      .   S
    N41    N42       1.34032      .   S
    N47    N46       1.34188      .   S
    N47    N48       1.34072      .   S
    N40    C15       1.36592      .   S
    N34    C11       1.36610      .   S
    N46    C19       1.36614      .   S
    N36    C10       1.36642      .   S
    N48    C18       1.36650      .   S
    N42    C14       1.36605      .   S
    C11    C10       1.41426      .   S
    C15    C14       1.41431      .   S
    C19    C18       1.41419      .   S
    C22    C23       1.41434      .   S
    C22    N54       1.36645      .   S
    C30    C31       1.41415      .   S
    C30    N66       1.36623      .   S
    C26    C27       1.41426      .   S
    C26    N60       1.36651      .   S
    C23    N52       1.36644      .   S
    C27    N58       1.36583      .   S
    C31    N64       1.36630      .   S
    N54    N53       1.34053      .   S
    N54    Zn2       2.11442      .   S
    N66    N65       1.34037      .   S
    N66    Zn4       2.11424      .   S
    N60    N59       1.34069      .   S
    N60    Zn3       2.11517      .   S
    N58    N59       1.34182      .   S
    N58    Zn4       2.10282      .   S
    N52    N53       1.34225      .   S
    N52    Zn3       2.10433      .   S
    N64    N65       1.34162      .   S
    N64    Zn2       2.10406      .   S
    N53    Zn7       2.21700      .   S
    N65    Zn7       2.21994      .   S
    N59    Zn7       2.21097      .   S
    Zn3    N61       2.11428      .   S
    Zn2    N55       2.11102      .   S
    Zn4    N67       2.11047      .   S
    Zn7    N56       2.19842      .   S
    Zn7    N62       2.20489      .   S
    Zn7    N68       2.20358      .   S
    N55    N56       1.34120      .   S
    N55    C24       1.36552      .   S
    N67    N68       1.34147      .   S
    N67    C32       1.36547      .   S
    N61    N62       1.34127      .   S
    N61    C28       1.36563      .   S
    N56    N57       1.34167      .   S
    N62    N63       1.34107      .   S
    N68    N69       1.34120      .   S
    C24    C25       1.41445      .   S
    C32    C33       1.41440      .   S
    C28    C29       1.41450      .   S
    N57    C25       1.36802      .   S
    N57    Zn8       2.11320      .   S
    N63    C29       1.36769      .   S
    N63    Zn8       2.11482      .   S
    N69    C33       1.36790      .   S
    N69    Zn8       2.11180      .   S
    C10    Ts70      0.46740      .   S
    C11    Ts71      0.46914      .   S
    C12    Ts72      0.46898      .   S
    C13    Ts73      0.46784      .   S
    C14    Ts74      0.46737      .   S
    C15    Ts75      0.46912      .   S
    C16    Ts76      0.46898      .   S
    C17    Ts77      0.46795      .   S
    C18    Ts78      0.46747      .   S
    C19    Ts79      0.46909      .   S
    C20    Ts80      0.46903      .   S
    C21    Ts81      0.46757      .   S
    C22    Ts82      0.46743      .   S
    C23    Ts83      0.46920      .   S
    C24    Ts84      0.46898      .   S
    C25    Ts85      0.46794      .   S
    C26    Ts86      0.46742      .   S
    C27    Ts87      0.46910      .   S
    C28    Ts88      0.46900      .   S
    C29    Ts89      0.46791      .   S
    C30    Ts90      0.46742      .   S
    C31    Ts91      0.46894      .   S
    C32    Ts92      0.46898      .   S
    C33    Ts93      0.46792      .   S
