# CIF file generated by openbabel 2.4.90, see http://openbabel.sf.net
data_I
_chemical_name_common ''
_cell_length_a 18.077
_cell_length_b 18.099
_cell_length_c 19.129
_cell_angle_alpha 89.93
_cell_angle_beta 90.006
_cell_angle_gamma 120.048
_space_group_name_H-M_alt 'P 1'
_space_group_name_Hall 'P 1'
loop_
    _symmetry_equiv_pos_as_xyz
    x,y,z
loop_
    _atom_site_label
    _atom_site_type_symbol
    _atom_site_fract_x
    _atom_site_fract_y
    _atom_site_fract_z
    _atom_site_occupancy
    N0      N    0.56007   0.97832   0.96567   1.000
    N1      N    0.58167   0.02188   0.03430   1.000
    O2      O    0.57357   0.00554   0.00856   1.000
    N3      N    0.03815   0.37286   0.52270   1.000
    N4      N    0.96129   0.33436   0.47763   1.000
    O5      O    0.99011   0.34880   0.49453   1.000
    N6      N    0.02155   0.58244   0.96559   1.000
    N7      N    0.97784   0.56067   0.03429   1.000
    O8      O    0.99423   0.56883   0.00853   1.000
    N9      N    0.33424   0.96140   0.52260   1.000
    N10     N    0.37263   0.03835   0.47756   1.000
    O11     O    0.35823   0.00950   0.49445   1.000
    N12     N    0.43914   0.41775   0.03436   1.000
    N13     N    0.41739   0.43964   0.96564   1.000
    O14     O    0.42554   0.43143   0.99141   1.000
    N15     N    0.62711   0.66573   0.52210   1.000
    N16     N    0.66545   0.62712   0.47722   1.000
    O17     O    0.65107   0.64160   0.49405   1.000
    Zr18    Zr   0.33341   0.66686   0.73418   1.000
    Zr19    Zr   0.66629   0.33322   0.26578   1.000
    O20     O    0.77723   0.31880   0.34985   1.000
    O21     O    0.68080   0.45848   0.34980   1.000
    O22     O    0.56630   0.36580   0.18200   1.000
    O23     O    0.54106   0.22236   0.34985   1.000
    O24     O    0.63366   0.20078   0.18198   1.000
    O25     O    0.79877   0.43332   0.18198   1.000
    O26     O    0.36580   0.56691   0.81758   1.000
    O27     O    0.43333   0.79934   0.81762   1.000
    O28     O    0.31892   0.77754   0.65015   1.000
    O29     O    0.22237   0.54151   0.65024   1.000
    O30     O    0.45874   0.68134   0.64996   1.000
    O31     O    0.20077   0.63425   0.81756   1.000
loop_
    _geom_bond_atom_site_label_1
    _geom_bond_atom_site_label_2
    _geom_bond_distance
    _geom_bond_site_symmetry_2
    _ccdc_geom_bond_type
    N1     O2        0.55517      .   S
    N0     O2        0.92528  1_566   S
    N4     O5        0.55508      .   S
    N3     O5        0.92513  1_455   S
    N7     O8        0.55541      .   S
    N6     O8        0.92568  1_456   S
    N10    O11       0.55529      .   S
    N9     O11       0.92548  1_565   S
    N13    O14       0.55549      .   S
    N12    O14       0.92582  1_554   S
    N16    O17       0.55530      .   S
    N15    O17       0.92550      .   S
    N4     O20       4.02311      .   S
    Zr19   O20       2.68321      .   S
    N16    O21       4.02484      .   S
    Zr19   O21       2.68430      .   S
    Zr19   O22       2.69208      .   S
    N12    O22       4.03745      .   S
    Zr19   O23       2.67975      .   S
    N10    O23       4.01957      .   S
    Zr19   O24       2.69380      .   S
    N1     O24       4.04010      .   S
    Zr19   O25       2.68991      .   S
    N7     O25       4.03568      .   S
    N13    O26       4.04112      .   S
    Zr18   O26       2.68613      .   S
    N0     O27       4.04360      .   S
    Zr18   O27       2.68913      .   S
    N9     O28       4.02008      .   S
    Zr18   O28       2.67991      .   S
    Zr18   O29       2.68370      .   S
    N3     O29       4.02435      .   S
    Zr18   O30       2.68375      .   S
    N15    O30       4.02355      .   S
    Zr18   O31       2.68750      .   S
    N6     O31       4.04315      .   S
