# CIF file generated by openbabel 2.4.90, see http://openbabel.sf.net
data_I
_chemical_name_common ''
_cell_length_a 18.077
_cell_length_b 18.099
_cell_length_c 19.129
_cell_angle_alpha 89.93
_cell_angle_beta 90.006
_cell_angle_gamma 120.048
_space_group_name_H-M_alt 'P 1'
_space_group_name_Hall 'P 1'
loop_
    _symmetry_equiv_pos_as_xyz
    x,y,z
loop_
    _atom_site_label
    _atom_site_type_symbol
    _atom_site_fract_x
    _atom_site_fract_y
    _atom_site_fract_z
    _atom_site_occupancy
    C0      C    0.87488   0.51091   0.33033   1.000
    C1      C    0.63580   0.12466   0.33008   1.000
    C2      C    0.48849   0.36409   0.33019   1.000
    C3      C    0.36416   0.48940   0.66975   1.000
    C4      C    0.51163   0.87560   0.66969   1.000
    C5      C    0.12459   0.63594   0.66987   1.000
    C6      C    0.66628   0.33318   0.26410   1.000
    C7      C    0.66601   0.33311   0.06940   1.000
    C8      C    0.33354   0.66694   0.73581   1.000
    C9      C    0.33328   0.66665   0.93058   1.000
    C10     C    0.79293   0.13540   0.43298   1.000
    C11     C    0.92507   0.20425   0.50540   1.000
    C12     C    0.98153   0.45624   0.43950   1.000
    C13     C    0.85603   0.46069   0.99395   1.000
    C14     C    0.08988   0.65599   0.08975   1.000
    C15     C    0.02383   0.61951   0.20808   1.000
    C16     C    0.34222   0.20680   0.43316   1.000
    C17     C    0.27874   0.07453   0.50552   1.000
    C18     C    0.47425   0.01811   0.43934   1.000
    C19     C    0.60334   0.14350   0.99388   1.000
    C20     C    0.56512   0.90996   0.08989   1.000
    C21     C    0.59471   0.97578   0.20818   1.000
    C22     C    0.86439   0.65665   0.43355   1.000
    C23     C    0.79573   0.72034   0.50554   1.000
    C24     C    0.54337   0.52598   0.43878   1.000
    C25     C    0.53868   0.39539   0.99390   1.000
    C26     C    0.34422   0.43500   0.08995   1.000
    C27     C    0.38063   0.40543   0.20827   1.000
    C28     C    0.65862   0.86481   0.56684   1.000
    C29     C    0.72157   0.79581   0.49446   1.000
    C30     C    0.52484   0.54392   0.56002   1.000
    C31     C    0.39566   0.53951   0.00000   1.000
    C32     C    0.43401   0.34442   0.91017   1.000
    C33     C    0.40476   0.38106   0.79180   1.000
    C34     C    0.13535   0.79185   0.56639   1.000
    C35     C    0.20395   0.92436   0.49426   1.000
    C36     C    0.45636   0.98252   0.56115   1.000
    C37     C    0.45997   0.85651   0.00000   1.000
    C38     C    0.65558   0.09043   0.91020   1.000
    C39     C    0.61998   0.02453   0.79198   1.000
    C40     C    0.20713   0.34305   0.56710   1.000
    C41     C    0.07484   0.27944   0.49479   1.000
    C42     C    0.01748   0.47410   0.56090   1.000
    C43     C    0.14357   0.60509   0.00000   1.000
    C44     C    0.90931   0.56490   0.90989   1.000
    C45     C    0.97533   0.59405   0.79157   1.000
    C46     C    0.86593   0.34794   0.39893   1.000
    C47     C    0.81290   0.25820   0.39653   1.000
    C48     C    0.83387   0.20453   0.43447   1.000
    C49     C    0.90771   0.24365   0.47412   1.000
    C50     C    0.96129   0.33436   0.47763   1.000
    C51     C    0.94071   0.38706   0.43925   1.000
    C52     C    0.90236   0.51953   0.16671   1.000
    C53     C    0.85554   0.47629   0.10634   1.000
    C54     C    0.89256   0.49639   0.03951   1.000
    C55     C    0.97784   0.56067   0.03429   1.000
    C56     C    0.02399   0.60453   0.09577   1.000
    C57     C    0.98805   0.58537   0.16175   1.000
    C58     C    0.48173   0.13381   0.39891   1.000
    C59     C    0.44499   0.18679   0.39654   1.000
    C60     C    0.37033   0.16581   0.43455   1.000
    C61     C    0.33553   0.09193   0.47416   1.000
    C62     C    0.37263   0.03835   0.47756   1.000
    C63     C    0.44598   0.05898   0.43917   1.000
    C64     C    0.61604   0.09710   0.16670   1.000
    C65     C    0.61966   0.14395   0.10629   1.000
    C66     C    0.60262   0.10702   0.03948   1.000
    C67     C    0.58167   0.02188   0.03430   1.000
    C68     C    0.57943   0.97570   0.09587   1.000
    C69     C    0.59623   0.01155   0.16182   1.000
    C70     C    0.65158   0.51800   0.39883   1.000
    C71     C    0.74139   0.55443   0.39667   1.000
    C72     C    0.79522   0.62884   0.43472   1.000
    C73     C    0.75622   0.66378   0.47412   1.000
    C74     C    0.66545   0.62712   0.47722   1.000
    C75     C    0.61258   0.55396   0.43882   1.000
    C76     C    0.48019   0.38340   0.16678   1.000
    C77     C    0.52325   0.37959   0.10630   1.000
    C78     C    0.50316   0.39647   0.03951   1.000
    C79     C    0.43914   0.41775   0.03436   1.000
    C80     C    0.39549   0.42036   0.09591   1.000
    C81     C    0.41461   0.40354   0.16180   1.000
    C82     C    0.51803   0.65232   0.60060   1.000
    C83     C    0.55521   0.74208   0.60321   1.000
    C84     C    0.63009   0.79566   0.56533   1.000
    C85     C    0.66461   0.75645   0.52568   1.000
    C86     C    0.62711   0.66573   0.52210   1.000
    C87     C    0.55351   0.61311   0.56030   1.000
    C88     C    0.38336   0.48092   0.83320   1.000
    C89     C    0.37970   0.52404   0.89357   1.000
    C90     C    0.39650   0.50388   0.96043   1.000
    C91     C    0.41739   0.43964   0.96564   1.000
    C92     C    0.41972   0.39588   0.90415   1.000
    C93     C    0.40309   0.41513   0.83816   1.000
    C94     C    0.34820   0.86629   0.60128   1.000
    C95     C    0.25840   0.81276   0.60331   1.000
    C96     C    0.20451   0.83328   0.56518   1.000
    C97     C    0.24348   0.90728   0.52572   1.000
    C98     C    0.33424   0.96140   0.52260   1.000
    C99     C    0.38716   0.94124   0.56115   1.000
    C100    C    0.51984   0.90300   0.83332   1.000
    C101    C    0.47625   0.85615   0.89366   1.000
    C102    C    0.49590   0.89308   0.96047   1.000
    C103    C    0.56007   0.97832   0.96567   1.000
    C104    C    0.60423   0.02457   0.90422   1.000
    C105    C    0.58554   0.98866   0.83828   1.000
    C106    C    0.13346   0.48192   0.60124   1.000
    C107    C    0.18667   0.44542   0.60360   1.000
    C108    C    0.16593   0.37095   0.56570   1.000
    C109    C    0.09202   0.33606   0.52613   1.000
    C110    C    0.03815   0.37286   0.52270   1.000
    C111    C    0.05855   0.44603   0.56107   1.000
    C112    C    0.09698   0.61635   0.83320   1.000
    C113    C    0.14396   0.62056   0.89368   1.000
    C114    C    0.10694   0.60384   0.96052   1.000
    C115    C    0.02155   0.58244   0.96559   1.000
    C116    C    0.97527   0.57956   0.90390   1.000
    C117    C    0.01118   0.59613   0.83801   1.000
    C118    C    0.74583   0.24142   0.35366   1.000
    C119    C    0.75713   0.31660   0.33100   1.000
    C120    C    0.82907   0.38180   0.35711   1.000
    C121    C    0.84909   0.48407   0.22266   1.000
    C122    C    0.77387   0.42232   0.19805   1.000
    C123    C    0.77568   0.41612   0.12829   1.000
    C124    C    0.49526   0.25382   0.35361   1.000
    C125    C    0.55922   0.24260   0.33105   1.000
    C126    C    0.55256   0.17075   0.35716   1.000
    C127    C    0.63394   0.15027   0.22261   1.000
    C128    C    0.64763   0.22551   0.19794   1.000
    C129    C    0.63961   0.22376   0.12817   1.000
    C130    C    0.75807   0.50414   0.35388   1.000
    C131    C    0.68277   0.44037   0.33123   1.000
    C132    C    0.61757   0.44724   0.35716   1.000
    C133    C    0.51554   0.36549   0.22270   1.000
    C134    C    0.57710   0.35176   0.19805   1.000
    C135    C    0.58323   0.35970   0.12820   1.000
    C136    C    0.50509   0.75892   0.64619   1.000
    C137    C    0.44082   0.68371   0.66862   1.000
    C138    C    0.44714   0.61847   0.64232   1.000
    C139    C    0.36561   0.51637   0.77724   1.000
    C140    C    0.35210   0.57800   0.80180   1.000
    C141    C    0.36005   0.58413   0.87160   1.000
    C142    C    0.24173   0.74568   0.64609   1.000
    C143    C    0.31702   0.75741   0.66899   1.000
    C144    C    0.38222   0.82965   0.64318   1.000
    C145    C    0.48474   0.84978   0.77740   1.000
    C146    C    0.42290   0.77457   0.80200   1.000
    C147    C    0.41630   0.77635   0.87173   1.000
    C148    C    0.25370   0.49573   0.64647   1.000
    C149    C    0.24234   0.55955   0.66894   1.000
    C150    C    0.17035   0.55270   0.64286   1.000
    C151    C    0.15028   0.63410   0.77729   1.000
    C152    C    0.22570   0.64819   0.80201   1.000
    C153    C    0.22394   0.64061   0.87183   1.000
    O154    O    0.12526   0.60447   0.98026   1.000
    O155    O    0.47793   0.87480   0.98024   1.000
    O156    O    0.39608   0.52169   0.98022   1.000
    O157    O    0.93520   0.52853   0.03690   1.000
    O158    O    0.00092   0.58260   0.06503   1.000
    O159    O    0.99969   0.57155   0.99994   1.000
    O160    O    0.59215   0.06445   0.03689   1.000
    O161    O    0.58055   0.99879   0.06509   1.000
    O162    O    0.57087   0.00010   0.99999   1.000
    O163    O    0.47115   0.40711   0.03694   1.000
    O164    O    0.41731   0.41905   0.06514   1.000
    O165    O    0.42826   0.42870   0.00000   1.000
    O166    O    0.61114   0.12549   0.07289   1.000
    O167    O    0.60298   0.12526   0.01668   1.000
    O168    O    0.51320   0.38803   0.07291   1.000
    O169    O    0.52092   0.39593   0.01670   1.000
    O170    O    0.87405   0.48634   0.07293   1.000
    O171    O    0.87430   0.47854   0.01673   1.000
    O172    O    0.65281   0.27843   0.09879   1.000
    O173    O    0.62462   0.34641   0.09880   1.000
    O174    O    0.72085   0.37462   0.09885   1.000
    O175    O    0.05694   0.63026   0.09276   1.000
    O176    O    0.57227   0.94283   0.09288   1.000
    O177    O    0.36986   0.42768   0.09293   1.000
    O178    O    0.00602   0.59495   0.12876   1.000
    O179    O    0.58783   0.99363   0.12885   1.000
    O180    O    0.40505   0.41195   0.12885   1.000
    O181    O    0.62964   0.18386   0.11723   1.000
    O182    O    0.61785   0.12053   0.13649   1.000
    O183    O    0.55324   0.36965   0.11725   1.000
    O184    O    0.50172   0.38150   0.13654   1.000
    O185    O    0.81561   0.44621   0.11732   1.000
    O186    O    0.87895   0.49791   0.13653   1.000
    O187    O    0.64362   0.22464   0.16306   1.000
    O188    O    0.58016   0.35573   0.16313   1.000
    O189    O    0.77477   0.41922   0.16317   1.000
    O190    O    0.94520   0.55245   0.16423   1.000
    O191    O    0.00594   0.60244   0.18492   1.000
    O192    O    0.44740   0.39347   0.16429   1.000
    O193    O    0.39762   0.40448   0.18504   1.000
    O194    O    0.60613   0.05433   0.16426   1.000
    O195    O    0.59547   0.99366   0.18500   1.000
    O196    O    0.62499   0.12369   0.19466   1.000
    O197    O    0.87573   0.50180   0.19469   1.000
    O198    O    0.49786   0.37444   0.19474   1.000
    O199    O    0.64079   0.18789   0.21028   1.000
    O200    O    0.65696   0.27935   0.23102   1.000
    O201    O    0.81148   0.45320   0.21036   1.000
    O202    O    0.72008   0.37775   0.23108   1.000
    O203    O    0.54632   0.35862   0.21038   1.000
    O204    O    0.62169   0.34247   0.23108   1.000
    O205    O    0.63487   0.13747   0.27635   1.000
    O206    O    0.86198   0.49749   0.27649   1.000
    O207    O    0.50202   0.36479   0.27644   1.000
    O208    O    0.71170   0.32489   0.29755   1.000
    O209    O    0.61275   0.28789   0.29758   1.000
    O210    O    0.67453   0.38677   0.29767   1.000
    O211    O    0.69082   0.18304   0.34187   1.000
    O212    O    0.59418   0.14771   0.34362   1.000
    O213    O    0.49187   0.30896   0.34190   1.000
    O214    O    0.55303   0.40567   0.34368   1.000
    O215    O    0.81647   0.50753   0.34211   1.000
    O216    O    0.85197   0.44636   0.34372   1.000
    O217    O    0.75148   0.27901   0.34233   1.000
    O218    O    0.79310   0.34920   0.34406   1.000
    O219    O    0.52724   0.24821   0.34233   1.000
    O220    O    0.55589   0.20667   0.34411   1.000
    O221    O    0.72042   0.47226   0.34256   1.000
    O222    O    0.65017   0.44381   0.34420   1.000
    O223    O    0.47012   0.22031   0.37507   1.000
    O224    O    0.77936   0.24981   0.37510   1.000
    O225    O    0.74973   0.52929   0.37528   1.000
    O226    O    0.84750   0.36487   0.37802   1.000
    O227    O    0.63458   0.48262   0.37800   1.000
    O228    O    0.51714   0.15228   0.37804   1.000
    O229    O    0.83941   0.30307   0.39773   1.000
    O230    O    0.82338   0.23137   0.41550   1.000
    O231    O    0.46336   0.16030   0.39773   1.000
    O232    O    0.40766   0.17630   0.41555   1.000
    O233    O    0.69648   0.53622   0.39775   1.000
    O234    O    0.76830   0.59164   0.41570   1.000
    O235    O    0.63208   0.53598   0.41883   1.000
    O236    O    0.46385   0.09639   0.41904   1.000
    O237    O    0.90332   0.36750   0.41909   1.000
    O238    O    0.81340   0.16997   0.43373   1.000
    O239    O    0.35627   0.18630   0.43385   1.000
    O240    O    0.82981   0.64275   0.43413   1.000
    O241    O    0.87079   0.22409   0.45430   1.000
    O242    O    0.35293   0.12887   0.45436   1.000
    O243    O    0.77572   0.64631   0.45442   1.000
    O244    O    0.57798   0.53997   0.43880   1.000
    O245    O    0.63901   0.59054   0.45802   1.000
    O246    O    0.46011   0.03854   0.43926   1.000
    O247    O    0.40930   0.04867   0.45837   1.000
    O248    O    0.96112   0.42165   0.43937   1.000
    O249    O    0.95100   0.36071   0.45844   1.000
    O250    O    0.93450   0.28900   0.47588   1.000
    O251    O    0.91639   0.22395   0.48976   1.000
    O252    O    0.71083   0.64545   0.47567   1.000
    O253    O    0.77597   0.69206   0.48983   1.000
    O254    O    0.35408   0.06514   0.47586   1.000
    O255    O    0.30713   0.08323   0.48984   1.000
    O256    O    0.64628   0.64642   0.49966   1.000
    O257    O    0.35344   0.99988   0.50008   1.000
    O258    O    0.99972   0.35361   0.50017   1.000
    O259    O    0.22372   0.91582   0.50999   1.000
    O260    O    0.69309   0.77613   0.51007   1.000
    O261    O    0.08343   0.30775   0.51046   1.000
    O262    O    0.64586   0.71109   0.52389   1.000
    O263    O    0.59031   0.63942   0.54120   1.000
    O264    O    0.28886   0.93434   0.52416   1.000
    O265    O    0.36070   0.95132   0.54188   1.000
    O266    O    0.06509   0.35446   0.52442   1.000
    O267    O    0.04835   0.40945   0.54189   1.000
    O268    O    0.64735   0.77606   0.54551   1.000
    O269    O    0.22400   0.87028   0.54545   1.000
    O270    O    0.12897   0.35350   0.54592   1.000
    O271    O    0.53917   0.57852   0.56016   1.000
    O272    O    0.53577   0.63271   0.58045   1.000
    O273    O    0.03802   0.46006   0.56099   1.000
    O274    O    0.09601   0.46397   0.58116   1.000
    O275    O    0.42176   0.96188   0.56115   1.000
    O276    O    0.36768   0.90376   0.58122   1.000
    O277    O    0.16993   0.81257   0.56579   1.000
    O278    O    0.23146   0.82302   0.58425   1.000
    O279    O    0.64435   0.83024   0.56609   1.000
    O280    O    0.59265   0.76887   0.58427   1.000
    O281    O    0.18653   0.35700   0.56640   1.000
    O282    O    0.17630   0.40818   0.58465   1.000
    O283    O    0.53662   0.69720   0.60191   1.000
    O284    O    0.48258   0.63540   0.62146   1.000
    O285    O    0.16007   0.46367   0.60242   1.000
    O286    O    0.15190   0.51731   0.62205   1.000
    O287    O    0.30330   0.83952   0.60230   1.000
    O288    O    0.36521   0.84797   0.62223   1.000
    O289    O    0.53015   0.75050   0.62470   1.000
    O290    O    0.25006   0.77922   0.62470   1.000
    O291    O    0.22019   0.47057   0.62504   1.000
    O292    O    0.44398   0.65109   0.65547   1.000
    O293    O    0.40565   0.55394   0.65604   1.000
    O294    O    0.20635   0.55613   0.65590   1.000
    O295    O    0.14747   0.59432   0.65637   1.000
    O296    O    0.34962   0.79353   0.65609   1.000
    O297    O    0.44692   0.85262   0.65644   1.000
    O298    O    0.27937   0.75155   0.65754   1.000
    O299    O    0.18316   0.69081   0.65798   1.000
    O300    O    0.47295   0.72132   0.65741   1.000
    O301    O    0.50836   0.81726   0.65794   1.000
    O302    O    0.24802   0.52764   0.65771   1.000
    O303    O    0.30893   0.49257   0.65811   1.000
    O304    O    0.38718   0.67533   0.70222   1.000
    O305    O    0.28794   0.61325   0.70237   1.000
    O306    O    0.32528   0.71217   0.70240   1.000
    O307    O    0.49819   0.86269   0.72355   1.000
    O308    O    0.36488   0.50288   0.72350   1.000
    O309    O    0.13743   0.63502   0.72358   1.000
    O310    O    0.34282   0.62247   0.76881   1.000
    O311    O    0.37822   0.72075   0.76891   1.000
    O312    O    0.27962   0.65757   0.76891   1.000
    O313    O    0.35885   0.54718   0.78952   1.000
    O314    O    0.37448   0.49865   0.80522   1.000
    O315    O    0.18799   0.64115   0.78965   1.000
    O316    O    0.12363   0.62523   0.80525   1.000
    O317    O    0.45382   0.81218   0.78970   1.000
    O318    O    0.50229   0.87639   0.80536   1.000
    O319    O    0.99326   0.59509   0.81479   1.000
    O320    O    0.40393   0.39810   0.81498   1.000
    O321    O    0.60276   0.00660   0.81513   1.000
    O322    O    0.35607   0.58106   0.83670   1.000
    O323    O    0.41960   0.77546   0.83687   1.000
    O324    O    0.22482   0.64440   0.83692   1.000
    O325    O    0.39322   0.44803   0.83568   1.000
    O326    O    0.38153   0.50248   0.86339   1.000
    O327    O    0.05408   0.60624   0.83561   1.000
    O328    O    0.12047   0.61845   0.86344   1.000
    O329    O    0.55269   0.94583   0.83580   1.000
    O330    O    0.49805   0.87958   0.86349   1.000
    O331    O    0.99323   0.58784   0.87096   1.000
    O332    O    0.41141   0.40550   0.87116   1.000
    O333    O    0.59489   0.00662   0.87125   1.000
    O334    O    0.36987   0.55408   0.88259   1.000
    O335    O    0.34666   0.62539   0.90109   1.000
    O336    O    0.44627   0.81625   0.88270   1.000
    O337    O    0.37479   0.72150   0.90116   1.000
    O338    O    0.18395   0.63059   0.88276   1.000
    O339    O    0.27861   0.65363   0.90121   1.000
    O340    O    0.38810   0.51396   0.92700   1.000
    O341    O    0.48608   0.87462   0.92707   1.000
    O342    O    0.12545   0.61220   0.92710   1.000
    O343    O    0.94229   0.57223   0.90690   1.000
    O344    O    0.99841   0.58100   0.93475   1.000
    O345    O    0.42687   0.37015   0.90716   1.000
    O346    O    0.41855   0.41776   0.93490   1.000
    O347    O    0.62990   0.05750   0.90721   1.000
    O348    O    0.58215   0.00144   0.93495   1.000
    O349    O    0.40694   0.47176   0.96304   1.000
    O350    O    0.52799   0.93570   0.96307   1.000
    O351    O    0.06424   0.59314   0.96305   1.000
loop_
    _geom_bond_atom_site_label_1
    _geom_bond_atom_site_label_2
    _geom_bond_distance
    _geom_bond_site_symmetry_2
    _ccdc_geom_bond_type
    C43    O154      0.49851  1_554   S
    C114   O154      0.49851      .   S
    C37    O155      0.50004  1_554   S
    C102   O155      0.50004      .   S
    C31    O156      0.49998  1_554   S
    C90    O156      0.49998      .   S
    C55    O157      0.69707      .   S
    C54    O157      0.69707      .   S
    C55    O158      0.71558  1_655   S
    C56    O158      0.71558      .   S
    C55    O159      0.74055  1_554   S
    C115   O159      0.74055  1_455   S
    C67    O160      0.69711      .   S
    C66    O160      0.69711      .   S
    C67    O161      0.71604  1_545   S
    C68    O161      0.71604      .   S
    C67    O162      0.74022  1_554   S
    C103   O162      0.74022  1_565   S
    C79    O163      0.69707      .   S
    C78    O163      0.69707      .   S
    C79    O164      0.71565      .   S
    C80    O164      0.71565      .   S
    C79    O165      0.74066      .   S
    C91    O165      0.74066  1_556   S
    C66    O166      0.70193      .   S
    C65    O166      0.70193      .   S
    C66    O167      0.54473      .   S
    C19    O167      0.54473  1_556   S
    C78    O168      0.70136      .   S
    C77    O168      0.70136      .   S
    C78    O169      0.54467      .   S
    C25    O169      0.54467  1_556   S
    C54    O170      0.70176      .   S
    C53    O170      0.70176      .   S
    C54    O171      0.54477      .   S
    C13    O171      0.54477  1_556   S
    C7     O172      1.05564      .   S
    C129   O172      1.05564      .   S
    C7     O173      1.05584      .   S
    C135   O173      1.05584      .   S
    C7     O174      1.05799      .   S
    C123   O174      1.05799      .   S
    C14    O175      0.54496      .   S
    C56    O175      0.54496      .   S
    C20    O176      0.54497      .   S
    C68    O176      0.54497      .   S
    C26    O177      0.54497      .   S
    C80    O177      0.54497      .   S
    C56    O178      0.69082      .   S
    C57    O178      0.69082  1_655   S
    C68    O179      0.69089      .   S
    C69    O179      0.69089  1_545   S
    C80    O180      0.69010      .   S
    C81    O180      0.69010      .   S
    C65    O181      0.68398      .   S
    C129   O181      0.68398      .   S
    C65    O182      0.70722      .   S
    C64    O182      0.70722      .   S
    C77    O183      0.68393      .   S
    C135   O183      0.68393      .   S
    C77    O184      0.70770      .   S
    C76    O184      0.70770      .   S
    C53    O185      0.68386      .   S
    C123   O185      0.68386      .   S
    C53    O186      0.70732      .   S
    C52    O186      0.70732      .   S
    C129   O187      0.67058      .   S
    C128   O187      0.67058      .   S
    C135   O188      0.67117      .   S
    C134   O188      0.67117      .   S
    C123   O189      0.67053      .   S
    C122   O189      0.67053      .   S
    C57    O190      0.70347      .   S
    C52    O190      0.70347      .   S
    C57    O191      0.54467  1_655   S
    C15    O191      0.54467      .   S
    C81    O192      0.70354      .   S
    C76    O192      0.70354      .   S
    C81    O193      0.54538      .   S
    C27    O193      0.54538      .   S
    C69    O194      0.70348      .   S
    C64    O194      0.70348      .   S
    C69    O195      0.54481  1_545   S
    C21    O195      0.54481      .   S
    C64    O196      0.68284      .   S
    C127   O196      0.68284      .   S
    C52    O197      0.68270      .   S
    C121   O197      0.68270      .   S
    C76    O198      0.68270      .   S
    C133   O198      0.68270      .   S
    C128   O199      0.67075      .   S
    C127   O199      0.67075      .   S
    C128   O200      1.10229      .   S
    C6     O200      1.10229      .   S
    C122   O201      0.67062      .   S
    C121   O201      0.67062      .   S
    C122   O202      1.09943      .   S
    C6     O202      1.09943      .   S
    C134   O203      0.67075      .   S
    C133   O203      0.67075      .   S
    C134   O204      1.10116      .   S
    C6     O204      1.10116      .   S
    C127   O205      1.05539      .   S
    C1     O205      1.05539      .   S
    C121   O206      1.05721      .   S
    C0     O206      1.05721      .   S
    C133   O207      1.05538      .   S
    C2     O207      1.05538      .   S
    C6     O208      1.10863      .   S
    C119   O208      1.10863      .   S
    C6     O209      1.10581      .   S
    C125   O209      1.10581      .   S
    C6     O210      1.11006      .   S
    C131   O210      1.11006      .   S
    C1     O211      1.05096      .   S
    C118   O211      1.05096      .   S
    C1     O212      1.05903      .   S
    C126   O212      1.05903      .   S
    C2     O213      1.05369      .   S
    C124   O213      1.05369      .   S
    C2     O214      1.05602      .   S
    C132   O214      1.05602      .   S
    C0     O215      1.05086      .   S
    C130   O215      1.05086      .   S
    C0     O216      1.05683      .   S
    C120   O216      1.05683      .   S
    C119   O217      0.67112      .   S
    C118   O217      0.67112      .   S
    C119   O218      0.67039      .   S
    C120   O218      0.67039      .   S
    C125   O219      0.67086      .   S
    C124   O219      0.67086      .   S
    C125   O220      0.67016      .   S
    C126   O220      0.67016      .   S
    C131   O221      0.67094      .   S
    C130   O221      0.67094      .   S
    C131   O222      0.67036      .   S
    C132   O222      0.67036      .   S
    C124   O223      0.68296      .   S
    C59    O223      0.68296      .   S
    C118   O224      0.68305      .   S
    C47    O224      0.68305      .   S
    C130   O225      0.68307      .   S
    C71    O225      0.68307      .   S
    C120   O226      0.68321      .   S
    C46    O226      0.68321      .   S
    C132   O227      0.68325      .   S
    C70    O227      0.68325      .   S
    C126   O228      0.68302      .   S
    C58    O228      0.68302      .   S
    C47    O229      0.70713      .   S
    C46    O229      0.70713      .   S
    C47    O230      0.70371      .   S
    C48    O230      0.70371      .   S
    C59    O231      0.70716      .   S
    C58    O231      0.70716      .   S
    C59    O232      0.70368      .   S
    C60    O232      0.70368      .   S
    C71    O233      0.70710      .   S
    C70    O233      0.70710      .   S
    C71    O234      0.70363      .   S
    C72    O234      0.70363      .   S
    C70    O235      0.70120      .   S
    C75    O235      0.70120      .   S
    C58    O236      0.70106      .   S
    C63    O236      0.70106      .   S
    C46    O237      0.70110      .   S
    C51    O237      0.70110      .   S
    C10    O238      0.54472      .   S
    C48    O238      0.54472      .   S
    C16    O239      0.54477      .   S
    C60    O239      0.54477      .   S
    C22    O240      0.54472      .   S
    C72    O240      0.54472      .   S
    C48    O241      0.69154      .   S
    C49    O241      0.69154      .   S
    C60    O242      0.69153      .   S
    C61    O242      0.69153      .   S
    C72    O243      0.69149      .   S
    C73    O243      0.69149      .   S
    C24    O244      0.54473      .   S
    C75    O244      0.54473      .   S
    C75    O245      0.69661      .   S
    C74    O245      0.69661      .   S
    C63    O246      0.54476      .   S
    C18    O246      0.54476      .   S
    C63    O247      0.69650      .   S
    C62    O247      0.69650      .   S
    C51    O248      0.54472      .   S
    C12    O248      0.54472      .   S
    C51    O249      0.69661      .   S
    C50    O249      0.69661      .   S
    C49    O250      0.71514      .   S
    C50    O250      0.71514      .   S
    C49    O251      0.54506      .   S
    C11    O251      0.54506      .   S
    C73    O252      0.71511      .   S
    C74    O252      0.71511      .   S
    C73    O253      0.54512      .   S
    C23    O253      0.54512      .   S
    C61    O254      0.71515      .   S
    C62    O254      0.71515      .   S
    C61    O255      0.54515      .   S
    C17    O255      0.54515      .   S
    C74    O256      0.74040      .   S
    C86    O256      0.74040      .   S
    C62    O257      0.74039  1_545   S
    C98    O257      0.74039      .   S
    C50    O258      0.74010      .   S
    C110   O258      0.74010  1_455   S
    C35    O259      0.54518      .   S
    C97    O259      0.54518      .   S
    C29    O260      0.54514      .   S
    C85    O260      0.54514      .   S
    C41    O261      0.54511      .   S
    C109   O261      0.54511      .   S
    C86    O262      0.71515      .   S
    C85    O262      0.71515      .   S
    C86    O263      0.69653      .   S
    C87    O263      0.69653      .   S
    C98    O264      0.71510      .   S
    C97    O264      0.71510      .   S
    C98    O265      0.69659      .   S
    C99    O265      0.69659      .   S
    C110   O266      0.71517      .   S
    C109   O266      0.71517      .   S
    C110   O267      0.69670      .   S
    C111   O267      0.69670      .   S
    C85    O268      0.69162      .   S
    C84    O268      0.69162      .   S
    C97    O269      0.69146      .   S
    C96    O269      0.69146      .   S
    C109   O270      0.69147      .   S
    C108   O270      0.69147      .   S
    C30    O271      0.54472      .   S
    C87    O271      0.54472      .   S
    C87    O272      0.70115      .   S
    C82    O272      0.70115      .   S
    C42    O273      0.54477      .   S
    C111   O273      0.54477      .   S
    C111   O274      0.70112      .   S
    C106   O274      0.70112      .   S
    C36    O275      0.54473      .   S
    C99    O275      0.54473      .   S
    C99    O276      0.70114      .   S
    C94    O276      0.70114      .   S
    C96    O277      0.54472      .   S
    C34    O277      0.54472      .   S
    C96    O278      0.70365      .   S
    C95    O278      0.70365      .   S
    C84    O279      0.54472      .   S
    C28    O279      0.54472      .   S
    C84    O280      0.70380      .   S
    C83    O280      0.70380      .   S
    C108   O281      0.54476      .   S
    C40    O281      0.54476      .   S
    C108   O282      0.70340      .   S
    C107   O282      0.70340      .   S
    C82    O283      0.70717      .   S
    C83    O283      0.70717      .   S
    C82    O284      0.68322      .   S
    C138   O284      0.68322      .   S
    C106   O285      0.70707      .   S
    C107   O285      0.70707      .   S
    C106   O286      0.68312      .   S
    C150   O286      0.68312      .   S
    C94    O287      0.70713      .   S
    C95    O287      0.70713      .   S
    C94    O288      0.68326      .   S
    C144   O288      0.68326      .   S
    C83    O289      0.68322      .   S
    C136   O289      0.68322      .   S
    C95    O290      0.68291      .   S
    C142   O290      0.68291      .   S
    C107   O291      0.68315      .   S
    C148   O291      0.68315      .   S
    C138   O292      0.67027      .   S
    C137   O292      0.67027      .   S
    C138   O293      1.05721      .   S
    C3     O293      1.05721      .   S
    C150   O294      0.67018      .   S
    C149   O294      0.67018      .   S
    C150   O295      1.05712      .   S
    C5     O295      1.05712      .   S
    C144   O296      0.67034      .   S
    C143   O296      0.67034      .   S
    C144   O297      1.05759      .   S
    C4     O297      1.05759      .   S
    C142   O298      0.67091      .   S
    C143   O298      0.67091      .   S
    C142   O299      1.05141      .   S
    C5     O299      1.05141      .   S
    C136   O300      0.67113      .   S
    C137   O300      0.67113      .   S
    C136   O301      1.05216      .   S
    C4     O301      1.05216      .   S
    C148   O302      0.67081      .   S
    C149   O302      0.67081      .   S
    C148   O303      1.05203      .   S
    C3     O303      1.05203      .   S
    C137   O304      1.10850      .   S
    C8     O304      1.10850      .   S
    C149   O305      1.10997      .   S
    C8     O305      1.10997      .   S
    C143   O306      1.10549      .   S
    C8     O306      1.10549      .   S
    C4     O307      1.05714      .   S
    C145   O307      1.05714      .   S
    C3     O308      1.05551      .   S
    C139   O308      1.05551      .   S
    C5     O309      1.05523      .   S
    C151   O309      1.05523      .   S
    C8     O310      1.09921      .   S
    C140   O310      1.09921      .   S
    C8     O311      1.10244      .   S
    C146   O311      1.10244      .   S
    C8     O312      1.10179      .   S
    C152   O312      1.10179      .   S
    C139   O313      0.67060      .   S
    C140   O313      0.67060      .   S
    C139   O314      0.68276      .   S
    C88    O314      0.68276      .   S
    C151   O315      0.67074      .   S
    C152   O315      0.67074      .   S
    C151   O316      0.68274      .   S
    C112   O316      0.68274      .   S
    C145   O317      0.67063      .   S
    C146   O317      0.67063      .   S
    C145   O318      0.68281      .   S
    C100   O318      0.68281      .   S
    C45    O319      0.54459      .   S
    C117   O319      0.54459  1_455   S
    C33    O320      0.54488      .   S
    C93    O320      0.54488      .   S
    C39    O321      0.54481      .   S
    C105   O321      0.54481  1_565   S
    C140   O322      0.67083      .   S
    C141   O322      0.67083      .   S
    C146   O323      0.67053      .   S
    C147   O323      0.67053      .   S
    C152   O324      0.67060      .   S
    C153   O324      0.67060      .   S
    C88    O325      0.70347      .   S
    C93    O325      0.70347      .   S
    C88    O326      0.70722      .   S
    C89    O326      0.70722      .   S
    C112   O327      0.70347      .   S
    C117   O327      0.70347      .   S
    C112   O328      0.70720      .   S
    C113   O328      0.70720      .   S
    C100   O329      0.70350      .   S
    C105   O329      0.70350      .   S
    C100   O330      0.70725      .   S
    C101   O330      0.70725      .   S
    C117   O331      0.69000  1_455   S
    C116   O331      0.69000      .   S
    C93    O332      0.69083      .   S
    C92    O332      0.69083      .   S
    C105   O333      0.69093  1_565   S
    C104   O333      0.69093      .   S
    C141   O334      0.68401      .   S
    C89    O334      0.68401      .   S
    C141   O335      1.05660      .   S
    C9     O335      1.05660      .   S
    C147   O336      0.68384      .   S
    C101   O336      0.68384      .   S
    C147   O337      1.05741      .   S
    C9     O337      1.05741      .   S
    C153   O338      0.68395      .   S
    C113   O338      0.68395      .   S
    C153   O339      1.05590      .   S
    C9     O339      1.05590      .   S
    C89    O340      0.70192      .   S
    C90    O340      0.70192      .   S
    C101   O341      0.70187      .   S
    C102   O341      0.70187      .   S
    C113   O342      0.70188      .   S
    C114   O342      0.70188      .   S
    C116   O343      0.54505      .   S
    C44    O343      0.54505      .   S
    C116   O344      0.71615      .   S
    C115   O344      0.71615  1_455   S
    C92    O345      0.54496      .   S
    C32    O345      0.54496      .   S
    C92    O346      0.71563      .   S
    C91    O346      0.71563      .   S
    C104   O347      0.54490      .   S
    C38    O347      0.54490      .   S
    C104   O348      0.71561      .   S
    C103   O348      0.71561  1_565   S
    C90    O349      0.69707      .   S
    C91    O349      0.69707      .   S
    C102   O350      0.69704      .   S
    C103   O350      0.69704      .   S
    C114   O351      0.69708      .   S
    C115   O351      0.69708      .   S
