# CIF file generated by openbabel 2.4.90, see http://openbabel.sf.net
data_I
_chemical_name_common ''
_cell_length_a 18.27
_cell_length_b 20.957
_cell_length_c 18.59
_cell_angle_alpha 89.889
_cell_angle_beta 90.069
_cell_angle_gamma 89.959
_space_group_name_H-M_alt 'P 1'
_space_group_name_Hall 'P 1'
loop_
    _symmetry_equiv_pos_as_xyz
    x,y,z
loop_
    _atom_site_label
    _atom_site_type_symbol
    _atom_site_fract_x
    _atom_site_fract_y
    _atom_site_fract_z
    _atom_site_occupancy
    Zn0     Zn   0.06565   0.51101   0.59946   1.000
    Zn1     Zn   0.56565   0.01101   0.59946   1.000
    Zn2     Zn   0.56565   0.51101   0.59946   1.000
    Zn3     Zn   0.31555   0.48908   0.40068   1.000
    Zn4     Zn   0.31555   0.98907   0.40068   1.000
    Zn5     Zn   0.81555   0.48908   0.40068   1.000
    Zn6     Zn   0.81554   0.98907   0.40068   1.000
    Zn7     Zn   0.06574   0.24057   0.09932   1.000
    Zn8     Zn   0.06574   0.74056   0.09932   1.000
    Zn9     Zn   0.56573   0.24056   0.09932   1.000
    Zn10    Zn   0.56573   0.74056   0.09932   1.000
    Zn11    Zn   0.31550   0.26101   0.90062   1.000
    Zn12    Zn   0.31549   0.76101   0.90062   1.000
    Zn13    Zn   0.81549   0.26101   0.90062   1.000
    Zn14    Zn   0.81549   0.76101   0.90062   1.000
    H15     H    0.15995   0.02824   0.46665   1.000
    H16     H    0.15994   0.52824   0.46665   1.000
    H17     H    0.65994   0.02824   0.46660   1.000
    H18     H    0.65994   0.52824   0.46665   1.000
    H19     H    0.36878   0.31397   0.60722   1.000
    H20     H    0.36878   0.81397   0.60722   1.000
    H21     H    0.86877   0.31397   0.60722   1.000
    H22     H    0.86877   0.81397   0.60722   1.000
    H23     H    0.16795   0.34443   0.73693   1.000
    H24     H    0.16795   0.84443   0.73693   1.000
    H25     H    0.66795   0.34443   0.73693   1.000
    H26     H    0.66794   0.84443   0.73693   1.000
    H27     H    0.10965   0.39891   0.69159   1.000
    H28     H    0.10965   0.89891   0.69159   1.000
    H29     H    0.60964   0.39891   0.69159   1.000
    H30     H    0.60964   0.89891   0.69159   1.000
    H31     H    0.48917   0.33949   0.70757   1.000
    Zn32    Zn   0.06566   0.01101   0.59946   1.000
    H33     H    0.48917   0.83949   0.70757   1.000
    H34     H    0.98917   0.33949   0.70757   1.000
    H35     H    0.98916   0.83949   0.70757   1.000
    H36     H    0.42506   0.26136   0.78781   1.000
    H37     H    0.42506   0.76136   0.78781   1.000
    H38     H    0.92506   0.26136   0.78781   1.000
    H39     H    0.92506   0.76136   0.78781   1.000
    H40     H    0.29980   0.40459   0.88016   1.000
    H41     H    0.29979   0.90459   0.88016   1.000
    H42     H    0.79979   0.40459   0.88016   1.000
    H43     H    0.79979   0.90459   0.88016   1.000
    H44     H    0.35802   0.48826   0.80108   1.000
    H45     H    0.35802   0.98826   0.80108   1.000
    H46     H    0.85802   0.48826   0.80108   1.000
    H47     H    0.85802   0.98826   0.80108   1.000
    H48     H    0.41001   0.47214   0.53350   1.000
    H49     H    0.41001   0.97214   0.53350   1.000
    H50     H    0.91000   0.47214   0.53350   1.000
    H51     H    0.91000   0.97214   0.53350   1.000
    H52     H    0.11853   0.18608   0.39285   1.000
    H53     H    0.11853   0.68608   0.39285   1.000
    H54     H    0.61853   0.18608   0.39285   1.000
    H55     H    0.61853   0.68608   0.39285   1.000
    H56     H    0.41758   0.15570   0.26298   1.000
    H57     H    0.41757   0.65570   0.26298   1.000
    H58     H    0.91757   0.15570   0.26298   1.000
    H59     H    0.91757   0.65570   0.26298   1.000
    H60     H    0.35934   0.10125   0.30829   1.000
    H61     H    0.35934   0.60125   0.30829   1.000
    H62     H    0.85934   0.10125   0.30829   1.000
    H63     H    0.85933   0.60125   0.30829   1.000
    H64     H    0.23966   0.16084   0.29241   1.000
    H65     H    0.23965   0.66083   0.29241   1.000
    H66     H    0.73965   0.16084   0.29241   1.000
    H67     H    0.73965   0.66083   0.29241   1.000
    H68     H    0.17601   0.23935   0.21209   1.000
    H69     H    0.17601   0.73934   0.21209   1.000
    H70     H    0.67600   0.23935   0.21209   1.000
    H71     H    0.67601   0.73934   0.21209   1.000
    H72     H    0.04986   0.09689   0.11943   1.000
    H73     H    0.04986   0.59689   0.11943   1.000
    H74     H    0.54985   0.09689   0.11943   1.000
    H75     H    0.54985   0.59689   0.11943   1.000
    H76     H    0.10766   0.01285   0.19847   1.000
    H77     H    0.10765   0.51285   0.19847   1.000
    H78     H    0.60765   0.01285   0.19847   1.000
    H79     H    0.60765   0.51285   0.19847   1.000
    H80     H    0.15963   0.22325   0.96640   1.000
    H81     H    0.15963   0.72325   0.96641   1.000
    H82     H    0.65963   0.22325   0.96640   1.000
    H83     H    0.65962   0.72325   0.96641   1.000
    H84     H    0.36945   0.43620   0.10669   1.000
    H85     H    0.36944   0.93619   0.10669   1.000
    H86     H    0.86944   0.43620   0.10669   1.000
    H87     H    0.86944   0.93619   0.10600   1.000
    H88     H    0.16809   0.40661   0.23620   1.000
    H89     H    0.16809   0.90661   0.23620   1.000
    H90     H    0.66809   0.40661   0.23620   1.000
    H91     H    0.66809   0.90661   0.23620   1.000
    H92     H    0.10977   0.35225   0.19098   1.000
    H93     H    0.10977   0.85225   0.19098   1.000
    H94     H    0.60977   0.35225   0.19098   1.000
    H95     H    0.60977   0.85225   0.19098   1.000
    H96     H    0.48912   0.41075   0.20798   1.000
    H97     H    0.48912   0.91074   0.20798   1.000
    H98     H    0.98911   0.41075   0.20798   1.000
    H99     H    0.98911   0.91074   0.20798   1.000
    C100    C    0.96034   0.61886   0.35548   1.000
    C101    C    0.45584   0.07809   0.41626   1.000
    C102    C    0.45584   0.57809   0.41620   1.000
    C103    C    0.95584   0.07809   0.41620   1.000
    H104    H    0.42518   0.48868   0.28830   1.000
    H105    H    0.42517   0.98868   0.28829   1.000
    H106    H    0.92517   0.48868   0.28800   1.000
    H107    H    0.92517   0.98867   0.28830   1.000
    H108    H    0.29980   0.34535   0.38064   1.000
    H109    H    0.29980   0.84535   0.38064   1.000
    H110    H    0.79980   0.34535   0.38064   1.000
    H111    H    0.79980   0.84535   0.38064   1.000
    H112    H    0.35788   0.26187   0.30148   1.000
    H113    H    0.35789   0.76186   0.30140   1.000
    H114    H    0.85788   0.26186   0.30149   1.000
    H115    H    0.85788   0.76186   0.30148   1.000
    H116    H    0.40968   0.27840   0.03337   1.000
    H117    H    0.40968   0.77840   0.03337   1.000
    H118    H    0.90968   0.27840   0.03337   1.000
    H119    H    0.90968   0.77840   0.03337   1.000
    H120    H    0.11981   0.06548   0.89354   1.000
    H121    H    0.11980   0.56547   0.89354   1.000
    H122    H    0.61980   0.06548   0.89354   1.000
    H123    H    0.61980   0.56548   0.89354   1.000
    H124    H    0.41825   0.09464   0.76385   1.000
    H125    H    0.41825   0.59464   0.76385   1.000
    H126    H    0.91825   0.09464   0.76385   1.000
    H127    H    0.91824   0.59464   0.76385   1.000
    H128    H    0.35967   0.14883   0.80899   1.000
    H129    H    0.35967   0.64882   0.80899   1.000
    H130    H    0.85967   0.14883   0.80899   1.000
    H131    H    0.85967   0.64882   0.80899   1.000
    C132    C    0.44736   0.39473   0.24555   1.000
    C133    C    0.44735   0.89473   0.24550   1.000
    C134    C    0.94735   0.39473   0.24555   1.000
    C135    C    0.94736   0.89473   0.24556   1.000
    C136    C    0.42813   0.33026   0.24897   1.000
    H137    H    0.23956   0.08939   0.79249   1.000
    H138    H    0.23956   0.58939   0.79249   1.000
    H139    H    0.73955   0.08939   0.79249   1.000
    H140    H    0.73955   0.58939   0.79249   1.000
    H141    H    0.17561   0.01137   0.71221   1.000
    H142    H    0.17561   0.51137   0.71221   1.000
    H143    H    0.67559   0.01137   0.71223   1.000
    H144    H    0.67560   0.51137   0.71220   1.000
    H145    H    0.04988   0.15461   0.61955   1.000
    H146    H    0.04987   0.65460   0.61956   1.000
    H147    H    0.54987   0.15461   0.61956   1.000
    H148    H    0.54988   0.65461   0.61955   1.000
    H149    H    0.10796   0.23817   0.69864   1.000
    H150    H    0.10795   0.73816   0.69864   1.000
    H151    H    0.60796   0.23817   0.69860   1.000
    H152    H    0.60795   0.73817   0.69860   1.000
    C153    C    0.18546   0.49044   0.49800   1.000
    C154    C    0.18546   0.99044   0.49800   1.000
    C155    C    0.68545   0.49044   0.49800   1.000
    C156    C    0.68545   0.99044   0.49800   1.000
    C157    C    0.32209   0.34584   0.59922   1.000
    C158    C    0.32209   0.84584   0.59922   1.000
    C159    C    0.82208   0.34584   0.59922   1.000
    C160    C    0.82208   0.84584   0.59922   1.000
    C161    C    0.21063   0.38131   0.64453   1.000
    C162    C    0.21063   0.88131   0.64453   1.000
    C163    C    0.71063   0.38131   0.64453   1.000
    C164    C    0.71063   0.88131   0.64453   1.000
    C165    C    0.20602   0.42212   0.58370   1.000
    C166    C    0.20602   0.92212   0.58370   1.000
    C167    C    0.70602   0.42212   0.58370   1.000
    C168    C    0.70602   0.92212   0.58370   1.000
    C169    C    0.26431   0.41982   0.53444   1.000
    C170    C    0.26430   0.91982   0.53444   1.000
    C171    C    0.76430   0.41982   0.53444   1.000
    C172    C    0.76430   0.91982   0.53444   1.000
    C173    C    0.46402   0.46844   0.70006   1.000
    C174    C    0.46401   0.96843   0.70000   1.000
    C175    C    0.96401   0.46844   0.70000   1.000
    C176    C    0.96401   0.96843   0.70000   1.000
    C177    C    0.44740   0.35543   0.74513   1.000
    C178    C    0.44740   0.85543   0.74513   1.000
    C179    C    0.94740   0.35543   0.74513   1.000
    C180    C    0.94739   0.85543   0.74513   1.000
    C181    C    0.42825   0.41994   0.74862   1.000
    C182    C    0.42824   0.91993   0.74860   1.000
    C183    C    0.92824   0.41993   0.74862   1.000
    C184    C    0.92824   0.91993   0.74862   1.000
    C185    C    0.41200   0.31211   0.78940   1.000
    C186    C    0.41200   0.81211   0.78940   1.000
    C187    C    0.91200   0.31211   0.78945   1.000
    C188    C    0.91200   0.81211   0.78944   1.000
    C189    C    0.34143   0.39239   0.84000   1.000
    C190    C    0.34142   0.89239   0.84059   1.000
    C191    C    0.84142   0.39239   0.84059   1.000
    C192    C    0.84142   0.89239   0.84059   1.000
    C193    C    0.37392   0.43832   0.79722   1.000
    C194    C    0.37392   0.93832   0.79722   1.000
    C195    C    0.87391   0.43832   0.79722   1.000
    C196    C    0.87391   0.93832   0.79722   1.000
    C197    C    0.43545   0.00988   0.50212   1.000
    C198    C    0.43545   0.50988   0.50212   1.000
    C199    C    0.93544   0.00988   0.50212   1.000
    C200    C    0.93544   0.50988   0.50212   1.000
    C201    C    0.07186   0.15427   0.40085   1.000
    C202    C    0.07186   0.65427   0.40085   1.000
    C203    C    0.57186   0.15427   0.40080   1.000
    C204    C    0.57186   0.65427   0.40085   1.000
    C205    C    0.46035   0.11886   0.35548   1.000
    C206    C    0.46035   0.61886   0.35548   1.000
    C207    C    0.96035   0.11886   0.35548   1.000
    N208    N    0.07472   0.63341   0.96070   1.000
    N209    N    0.57471   0.13341   0.96075   1.000
    N210    N    0.57471   0.63341   0.96074   1.000
    N211    N    0.40589   0.21779   0.94100   1.000
    N212    N    0.40589   0.71779   0.94100   1.000
    N213    N    0.90589   0.21779   0.94100   1.000
    N214    N    0.90588   0.71779   0.94100   1.000
    N215    N    0.02109   0.09409   0.85019   1.000
    C216    C    0.95584   0.57809   0.41626   1.000
    C217    C    0.01420   0.08040   0.46567   1.000
    C218    C    0.01420   0.58040   0.46567   1.000
    C219    C    0.51419   0.08041   0.46567   1.000
    C220    C    0.51419   0.58040   0.46567   1.000
    C221    C    0.21391   0.03200   0.29982   1.000
    C222    C    0.21391   0.53199   0.29982   1.000
    C223    C    0.71391   0.03200   0.29981   1.000
    C224    C    0.71391   0.53199   0.29980   1.000
    C225    C    0.19779   0.14512   0.25476   1.000
    C226    C    0.19779   0.64512   0.25476   1.000
    C227    C    0.69778   0.14513   0.25476   1.000
    C228    C    0.69778   0.64512   0.25476   1.000
    C229    C    0.17832   0.08071   0.25120   1.000
    C230    C    0.17831   0.58071   0.25120   1.000
    C231    C    0.67831   0.08071   0.25100   1.000
    C232    C    0.67831   0.58071   0.25120   1.000
    C233    C    0.16264   0.18867   0.21038   1.000
    C234    C    0.16263   0.68867   0.21038   1.000
    C235    C    0.66263   0.18868   0.21030   1.000
    C236    C    0.66263   0.68867   0.21038   1.000
    C237    C    0.09160   0.10884   0.15905   1.000
    C238    C    0.09159   0.60884   0.15906   1.000
    C239    C    0.59159   0.10884   0.15906   1.000
    C240    C    0.59159   0.60884   0.15906   1.000
    C241    C    0.12386   0.06269   0.20245   1.000
    C242    C    0.12386   0.56268   0.20246   1.000
    C243    C    0.62385   0.06269   0.20246   1.000
    C244    C    0.62385   0.56268   0.20246   1.000
    C245    C    0.18531   0.26088   0.99766   1.000
    C246    C    0.18531   0.76088   0.99766   1.000
    C247    C    0.68530   0.26088   0.99766   1.000
    C248    C    0.68530   0.76088   0.99766   1.000
    C249    C    0.32258   0.40461   0.09869   1.000
    C250    C    0.32258   0.90460   0.09869   1.000
    C251    C    0.82258   0.40460   0.09869   1.000
    C252    C    0.82258   0.90460   0.09869   1.000
    C253    C    0.21082   0.36975   0.14385   1.000
    C254    C    0.21082   0.86975   0.14385   1.000
    C255    C    0.71081   0.36975   0.14385   1.000
    C256    C    0.71081   0.86975   0.14385   1.000
    C257    C    0.20614   0.32901   0.08323   1.000
    C258    C    0.20614   0.82901   0.08323   1.000
    C259    C    0.70614   0.32901   0.08323   1.000
    C260    C    0.70614   0.82901   0.08323   1.000
    C261    C    0.26455   0.33099   0.03400   1.000
    C262    C    0.26454   0.83099   0.03400   1.000
    C263    C    0.76454   0.33099   0.03400   1.000
    C264    C    0.76454   0.83099   0.03400   1.000
    C265    C    0.46380   0.28195   0.20023   1.000
    C266    C    0.46380   0.78195   0.20023   1.000
    C267    C    0.96380   0.28195   0.20023   1.000
    C268    C    0.96379   0.78195   0.20023   1.000
    C269    C    0.42813   0.83025   0.24890   1.000
    C270    C    0.92813   0.33026   0.24897   1.000
    C271    C    0.92812   0.83025   0.24897   1.000
    C272    C    0.41205   0.43795   0.28991   1.000
    C273    C    0.41204   0.93795   0.28991   1.000
    C274    C    0.91204   0.43795   0.28991   1.000
    C275    C    0.91204   0.93795   0.28991   1.000
    C276    C    0.34141   0.35762   0.34105   1.000
    C277    C    0.34141   0.85762   0.34105   1.000
    C278    C    0.84141   0.35762   0.34105   1.000
    C279    C    0.84141   0.85762   0.34105   1.000
    C280    C    0.37383   0.31179   0.29762   1.000
    C281    C    0.37383   0.81178   0.29762   1.000
    C282    C    0.87383   0.31178   0.29762   1.000
    C283    C    0.87383   0.81178   0.29760   1.000
    C284    C    0.43537   0.24074   0.00219   1.000
    C285    C    0.43537   0.74074   0.00219   1.000
    C286    C    0.93536   0.24074   0.00219   1.000
    C287    C    0.93536   0.74073   0.00219   1.000
    C288    C    0.07286   0.09703   0.90145   1.000
    C289    C    0.07286   0.59702   0.90145   1.000
    C290    C    0.57285   0.09703   0.90140   1.000
    C291    C    0.57285   0.59703   0.90145   1.000
    C292    C    0.46090   0.13171   0.85615   1.000
    C293    C    0.46090   0.63171   0.85615   1.000
    C294    C    0.96090   0.13171   0.85615   1.000
    C295    C    0.96090   0.63171   0.85615   1.000
    C296    C    0.45616   0.17251   0.91671   1.000
    C297    C    0.45616   0.67251   0.91671   1.000
    C298    C    0.95616   0.17251   0.91671   1.000
    C299    C    0.95616   0.67251   0.91671   1.000
    C300    C    0.01469   0.17064   0.96597   1.000
    C301    C    0.01468   0.67064   0.96597   1.000
    C302    C    0.51468   0.17064   0.96597   1.000
    C303    C    0.51468   0.67064   0.96597   1.000
    C304    C    0.21400   0.21827   0.79996   1.000
    C305    C    0.21400   0.71827   0.79996   1.000
    C306    C    0.71400   0.21827   0.79996   1.000
    C307    C    0.71400   0.71827   0.79996   1.000
    C308    C    0.19772   0.10537   0.75485   1.000
    C309    C    0.19772   0.60537   0.75485   1.000
    C310    C    0.69770   0.10536   0.75486   1.000
    C311    C    0.69771   0.60537   0.75485   1.000
    C312    C    0.17839   0.16984   0.75131   1.000
    C313    C    0.17839   0.66984   0.75131   1.000
    C314    C    0.67840   0.16984   0.75130   1.000
    C315    C    0.67839   0.66984   0.75130   1.000
    C316    C    0.16240   0.06209   0.71051   1.000
    C317    C    0.16240   0.56209   0.71051   1.000
    C318    C    0.66239   0.06209   0.71052   1.000
    C319    C    0.66239   0.56209   0.71051   1.000
    C320    C    0.09158   0.14237   0.65919   1.000
    C321    C    0.09157   0.64237   0.65919   1.000
    C322    C    0.59157   0.14237   0.65919   1.000
    C323    C    0.59157   0.64237   0.65919   1.000
    C324    C    0.12400   0.18825   0.70257   1.000
    C325    C    0.12399   0.68825   0.70258   1.000
    C326    C    0.62399   0.18825   0.70250   1.000
    C327    C    0.62399   0.68825   0.70257   1.000
    N328    N    0.25022   0.46339   0.48023   1.000
    N329    N    0.25022   0.96339   0.48023   1.000
    N330    N    0.75021   0.46339   0.48023   1.000
    N331    N    0.75021   0.96339   0.48023   1.000
    N332    N    0.32403   0.38219   0.53974   1.000
    N333    N    0.32403   0.88219   0.53974   1.000
    N334    N    0.82402   0.38219   0.53974   1.000
    N335    N    0.82402   0.88219   0.53974   1.000
    N336    N    0.15605   0.46773   0.55937   1.000
    N337    N    0.15605   0.96773   0.55937   1.000
    N338    N    0.65604   0.46773   0.55937   1.000
    N339    N    0.65604   0.96773   0.55937   1.000
    N340    N    0.27050   0.34327   0.65057   1.000
    N341    N    0.27050   0.84327   0.65057   1.000
    N342    N    0.77050   0.34327   0.65057   1.000
    N343    N    0.77049   0.84327   0.65057   1.000
    N344    N    0.16045   0.37900   0.69833   1.000
    N345    N    0.16045   0.87900   0.69833   1.000
    N346    N    0.66044   0.37900   0.69833   1.000
    N347    N    0.66044   0.87900   0.69833   1.000
    N348    N    0.36008   0.33018   0.83682   1.000
    N349    N    0.36007   0.83018   0.83682   1.000
    N350    N    0.86007   0.33018   0.83682   1.000
    N351    N    0.86007   0.83018   0.83682   1.000
    N352    N    0.00021   0.03691   0.51992   1.000
    N353    N    0.00021   0.53691   0.51992   1.000
    N354    N    0.50021   0.03691   0.51992   1.000
    N355    N    0.50020   0.53691   0.51992   1.000
    N356    N    0.07390   0.11798   0.46038   1.000
    N357    N    0.07389   0.61798   0.46030   1.000
    N358    N    0.57389   0.11798   0.46030   1.000
    N359    N    0.57389   0.61798   0.46030   1.000
    N360    N    0.40594   0.03253   0.44068   1.000
    N361    N    0.40593   0.53253   0.44068   1.000
    N362    N    0.90593   0.03253   0.44068   1.000
    N363    N    0.90593   0.53253   0.44068   1.000
    N364    N    0.02020   0.15684   0.34946   1.000
    N365    N    0.02020   0.65684   0.34946   1.000
    N366    N    0.52019   0.15684   0.34946   1.000
    N367    N    0.52019   0.65684   0.34946   1.000
    N368    N    0.41008   0.12121   0.30164   1.000
    N369    N    0.41008   0.62121   0.30164   1.000
    N370    N    0.91008   0.12121   0.30164   1.000
    N371    N    0.91008   0.62121   0.30164   1.000
    N372    N    0.11058   0.17095   0.16288   1.000
    N373    N    0.11058   0.67095   0.16288   1.000
    N374    N    0.61058   0.17095   0.16288   1.000
    N375    N    0.61058   0.67095   0.16288   1.000
    N376    N    0.25029   0.28753   0.97992   1.000
    N377    N    0.25029   0.78753   0.97992   1.000
    N378    N    0.75028   0.28753   0.97992   1.000
    N379    N    0.75028   0.78753   0.97992   1.000
    N380    N    0.32447   0.36828   0.03934   1.000
    N381    N    0.32447   0.86828   0.03934   1.000
    N382    N    0.82447   0.36828   0.03934   1.000
    N383    N    0.82447   0.86827   0.03934   1.000
    N384    N    0.15593   0.28373   0.05890   1.000
    N385    N    0.15593   0.78373   0.05800   1.000
    N386    N    0.65592   0.28373   0.05890   1.000
    N387    N    0.65592   0.78373   0.05800   1.000
    N388    N    0.27088   0.40745   0.14991   1.000
    N389    N    0.27088   0.90744   0.14991   1.000
    N390    N    0.77088   0.40745   0.14991   1.000
    N391    N    0.77088   0.90744   0.14991   1.000
    N392    N    0.16047   0.37232   0.19747   1.000
    N393    N    0.16046   0.87232   0.19747   1.000
    N394    N    0.66046   0.37232   0.19747   1.000
    N395    N    0.66046   0.87232   0.19747   1.000
    N396    N    0.36011   0.41982   0.33729   1.000
    N397    N    0.36011   0.91982   0.33729   1.000
    N398    N    0.86011   0.41982   0.33729   1.000
    N399    N    0.86010   0.91982   0.33729   1.000
    N400    N    0.00045   0.21415   0.01997   1.000
    N401    N    0.00045   0.71415   0.01997   1.000
    N402    N    0.50045   0.21415   0.01997   1.000
    N403    N    0.50044   0.71415   0.01997   1.000
    N404    N    0.07472   0.13342   0.96070   1.000
    N405    N    0.02109   0.59409   0.85019   1.000
    N406    N    0.52109   0.09409   0.85020   1.000
    N407    N    0.52109   0.59409   0.85000   1.000
    N408    N    0.41053   0.12903   0.80243   1.000
    N409    N    0.41053   0.62903   0.80243   1.000
    N410    N    0.91053   0.12904   0.80243   1.000
    N411    N    0.91053   0.62903   0.80243   1.000
    N412    N    0.11037   0.08018   0.66305   1.000
    N413    N    0.11036   0.58017   0.66305   1.000
    N414    N    0.61037   0.08018   0.66305   1.000
    N415    N    0.61036   0.58017   0.66305   1.000
    O416    O    0.02137   0.44725   0.66576   1.000
    O417    O    0.02137   0.94725   0.66576   1.000
    O418    O    0.52137   0.44725   0.66576   1.000
    O419    O    0.52136   0.94725   0.66576   1.000
    O420    O    0.43784   0.02292   0.69386   1.000
    O421    O    0.43784   0.52292   0.69386   1.000
    O422    O    0.93783   0.02292   0.69386   1.000
    O423    O    0.93783   0.52292   0.69386   1.000
    O424    O    0.27138   0.05290   0.33421   1.000
    O425    O    0.27137   0.55290   0.33421   1.000
    O426    O    0.77137   0.05290   0.33421   1.000
    O427    O    0.77137   0.55290   0.33421   1.000
    O428    O    0.18753   0.47762   0.30605   1.000
    O429    O    0.18753   0.97761   0.30605   1.000
    O430    O    0.68753   0.47762   0.30600   1.000
    O431    O    0.68752   0.97762   0.30606   1.000
    O432    O    0.02115   0.30330   0.16600   1.000
    O433    O    0.02115   0.80330   0.16600   1.000
    O434    O    0.52115   0.30330   0.16600   1.000
    O435    O    0.52114   0.80330   0.16600   1.000
    O436    O    0.43760   0.22756   0.19380   1.000
    O437    O    0.43760   0.72756   0.19380   1.000
    O438    O    0.93759   0.22757   0.19380   1.000
    O439    O    0.93759   0.72756   0.19380   1.000
    O440    O    0.27148   0.19719   0.83435   1.000
    O441    O    0.27147   0.69719   0.83435   1.000
    O442    O    0.77147   0.19718   0.83436   1.000
    O443    O    0.77147   0.69719   0.83435   1.000
    O444    O    0.18758   0.27263   0.80621   1.000
    O445    O    0.18758   0.77263   0.80621   1.000
    O446    O    0.68757   0.27263   0.80621   1.000
    O447    O    0.68757   0.77263   0.80621   1.000
loop_
    _geom_bond_atom_site_label_1
    _geom_bond_atom_site_label_2
    _geom_bond_distance
    _geom_bond_site_symmetry_2
    _ccdc_geom_bond_type
    C284   N402      1.35303      .   S
    C284   H116      1.08685      .   S
    C284   N211      1.34766  1_554   S
    C287   N401      1.35319  1_655   S
    C287   H119      1.08684      .   S
    C287   N214      1.34766  1_554   S
    C286   N400      1.35317  1_655   S
    C286   H118      1.08686      .   S
    C286   N213      1.34765  1_554   S
    C285   N403      1.35302      .   S
    C285   H117      1.08686      .   S
    C285   N212      1.34767  1_554   S
    N401   Zn8       1.97614      .   S
    N401   C301      1.38223  1_554   S
    N402   Zn9       1.97612      .   S
    N402   C302      1.38224  1_554   S
    N403   Zn10      1.97612      .   S
    N403   C303      1.38226  1_554   S
    N400   Zn7       1.97612      .   S
    N400   C300      1.38225  1_554   S
    C264   N383      1.34924      .   S
    C264   C260      1.40718      .   S
    C264   N379      1.38254  1_554   S
    C263   N382      1.34927      .   S
    C263   C259      1.40717      .   S
    C263   N378      1.38254  1_554   S
    C262   N381      1.34926      .   S
    C262   C258      1.40717      .   S
    C262   N377      1.38254  1_554   S
    C261   N380      1.34925      .   S
    C261   C257      1.40718      .   S
    C261   N376      1.38254  1_554   S
    N380   C249      1.34216      .   S
    N383   C252      1.34216      .   S
    N382   C251      1.34216      .   S
    N381   C250      1.34216      .   S
    N385   C258      1.40144      .   S
    N385   Zn8       2.03130      .   S
    N385   C246      1.33374  1_554   S
    N387   C260      1.40143      .   S
    N387   Zn10      2.03130      .   S
    N387   C248      1.33374  1_554   S
    N384   C257      1.39592      .   S
    N384   Zn7       2.02503      .   S
    N384   C245      1.34787  1_554   S
    N386   C259      1.39591      .   S
    N386   Zn9       2.02504      .   S
    N386   C247      1.34787  1_554   S
    C258   C254      1.41760      .   S
    C257   C253      1.41760      .   S
    C259   C255      1.41762      .   S
    C260   C256      1.41760      .   S
    C249   H84       1.09290      .   S
    C249   N388      1.34337      .   S
    C250   H85       1.09289      .   S
    C250   N389      1.34336      .   S
    C252   H87       1.09123      .   S
    C252   N391      1.34337      .   S
    C251   H86       1.09290      .   S
    C251   N390      1.34336      .   S
    Zn7    N372      2.04573      .   S
    Zn7    O432      1.98390      .   S
    Zn8    N373      2.04568      .   S
    Zn8    O433      1.98388      .   S
    Zn9    N374      2.04573      .   S
    Zn9    O434      1.98392      .   S
    Zn10   N375      2.04573      .   S
    Zn10   O435      1.98394      .   S
    H72    C237      1.08922      .   S
    H73    C238      1.08933      .   S
    H74    C239      1.08934      .   S
    H75    C240      1.08934      .   S
    C253   N388      1.35737      .   S
    C253   N392      1.35833      .   S
    C254   N389      1.35738      .   S
    C254   N393      1.35833      .   S
    C255   N390      1.35736      .   S
    C255   N394      1.35834      .   S
    C256   N391      1.35736      .   S
    C256   N395      1.35833      .   S
    C237   N372      1.34935      .   S
    C237   C241      1.38891      .   S
    C238   N373      1.34934      .   S
    C238   C242      1.38891      .   S
    C239   N374      1.34935      .   S
    C239   C243      1.38888      .   S
    C240   N375      1.34935      .   S
    C240   C244      1.38889      .   S
    N374   C235      1.34872      .   S
    N375   C236      1.34972      .   S
    N372   C233      1.34974      .   S
    N373   C234      1.34975      .   S
    O435   C266      1.30527      .   S
    O434   C265      1.30531      .   S
    O433   C268      1.30551  1_455   S
    O432   C267      1.30546  1_455   S
    H92    N392      1.02451      .   S
    H95    N395      1.02453      .   S
    H93    N393      1.02453      .   S
    H94    N394      1.02451      .   S
    O439   C268      1.24250      .   S
    O436   C265      1.24252      .   S
    O437   C266      1.24251      .   S
    O438   C267      1.24249      .   S
    N395   H91       1.02773      .   S
    N394   H90       1.02773      .   S
    N393   H89       1.02773      .   S
    N392   H88       1.02773      .   S
    H76    C241      1.08844      .   S
    H77    C242      1.08843      .   S
    H78    C243      1.08844      .   S
    H79    C244      1.08843      .   S
    C265   C136      1.50813      .   S
    C266   C269      1.50734      .   S
    C267   C270      1.50815      .   S
    C268   C271      1.50816      .   S
    C241   C229      1.39764      .   S
    C243   C231      1.39521      .   S
    C242   C230      1.39753      .   S
    C244   C232      1.39761      .   S
    H99    C135      1.08783      .   S
    H98    C134      1.08778      .   S
    H97    C133      1.08721      .   S
    H96    C132      1.08777      .   S
    C235   H70       1.09038      .   S
    C235   C227      1.38691      .   S
    C233   H68       1.09035      .   S
    C233   C225      1.38605      .   S
    C234   H69       1.09034      .   S
    C234   C226      1.38607      .   S
    C236   H71       1.09036      .   S
    C236   C228      1.38603      .   S
    C133   C269      1.39775      .   S
    C133   C273      1.38618      .   S
    C134   C270      1.39774      .   S
    C134   C274      1.38566      .   S
    C132   C136      1.39776      .   S
    C132   C272      1.38566      .   S
    C135   C271      1.39776      .   S
    C135   C275      1.38559      .   S
    C269   C281      1.39845      .   S
    C271   C283      1.39722      .   S
    C136   C280      1.39755      .   S
    C270   C282      1.39755      .   S
    C231   C227      1.39816      .   S
    C231   C223      1.51080      .   S
    C229   C225      1.39797      .   S
    C229   C221      1.50867      .   S
    C230   C226      1.39795      .   S
    C230   C222      1.50868      .   S
    C232   C228      1.39797      .   S
    C232   C224      1.50845      .   S
    C227   H66       1.08784      .   S
    C225   H64       1.08777      .   S
    C226   H65       1.08777      .   S
    C228   H67       1.08783      .   S
    H59    N371      1.02769      .   S
    H58    N370      1.02769      .   S
    H57    N369      1.02769      .   S
    H56    N368      1.02769      .   S
    H106   C274      1.09042      .   S
    H105   C273      1.09026      .   S
    H104   C272      1.09026      .   S
    H107   C275      1.09027      .   S
    C275   N399      1.34982      .   S
    C274   N398      1.34970      .   S
    C273   N397      1.34968      .   S
    C272   N396      1.34974      .   S
    C283   H115      1.08850      .   S
    C283   C279      1.38905      .   S
    C280   H112      1.08846      .   S
    C280   C276      1.38881      .   S
    C281   H113      1.08835      .   S
    C281   C277      1.38878      .   S
    C282   H114      1.08848      .   S
    C282   C278      1.38880      .   S
    C224   O430      1.24281      .   S
    C224   O427      1.30512      .   S
    C223   O431      1.24300  1_545   S
    C223   O426      1.30501      .   S
    C221   O429      1.24298  1_545   S
    C221   O424      1.30498      .   S
    C222   O428      1.24286      .   S
    C222   O425      1.30499      .   S
    N371   H63       1.02487      .   S
    N371   C100      1.35837      .   S
    N370   H62       1.02487      .   S
    N370   C207      1.35837      .   S
    N369   H61       1.02485      .   S
    N369   C206      1.35837      .   S
    N368   H60       1.02487      .   S
    N368   C205      1.35837      .   S
    O425   Zn3       1.98921      .   S
    O426   Zn6       1.98929  1_545   S
    O427   Zn5       1.98923      .   S
    O424   Zn4       1.98923  1_545   S
    N398   C278      1.34939      .   S
    N398   Zn5       2.04098      .   S
    N397   C277      1.34940      .   S
    N397   Zn4       2.04097      .   S
    N396   C276      1.34939      .   S
    N396   Zn3       2.04096      .   S
    N399   C279      1.34941      .   S
    N399   Zn6       2.04093      .   S
    C276   H108      1.08931      .   S
    C277   H109      1.08930      .   S
    C278   H110      1.08931      .   S
    C279   H111      1.08933      .   S
    N367   C206      1.35740      .   S
    N367   C204      1.34316      .   S
    N366   C205      1.35740      .   S
    N366   C203      1.34250      .   S
    N365   C100      1.35756  1_455   S
    N365   C202      1.34318      .   S
    N364   C207      1.35755  1_455   S
    N364   C201      1.34316      .   S
    C207   C103      1.41689      .   S
    C205   C101      1.41777      .   S
    C206   C102      1.41689      .   S
    C100   C216      1.41778      .   S
    H55    C204      1.09290      .   S
    H54    C203      1.09278      .   S
    H53    C202      1.09290      .   S
    H52    C201      1.09290      .   S
    Zn3    N361      2.02751      .   S
    Zn3    N328      1.97574      .   S
    Zn6    N362      2.02761  1_565   S
    Zn6    N331      1.97575      .   S
    Zn5    N363      2.02749      .   S
    Zn5    N330      1.97575      .   S
    Zn4    N360      2.02758  1_565   S
    Zn4    N329      1.97576      .   S
    C203   N358      1.34157      .   S
    C204   N359      1.34081      .   S
    C202   N357      1.34080      .   S
    C201   N356      1.34202      .   S
    C102   N361      1.39670      .   S
    C102   C220      1.40797      .   S
    C103   N362      1.39670      .   S
    C103   C217      1.40812  1_655   S
    C101   N360      1.39636      .   S
    C101   C219      1.40724      .   S
    C216   N363      1.39635      .   S
    C216   C218      1.40740  1_655   S
    N363   C200      1.34782      .   S
    N362   C199      1.34783      .   S
    N361   C198      1.34782      .   S
    N360   C197      1.34782      .   S
    N359   C220      1.34937      .   S
    N358   C219      1.34936      .   S
    N357   C218      1.34938      .   S
    N356   C217      1.34928      .   S
    C220   N355      1.38224      .   S
    C219   N354      1.38225      .   S
    C218   N353      1.38224      .   S
    C217   N352      1.38223      .   S
    H17    C156      1.08741  1_545   S
    H18    C155      1.08690      .   S
    H15    C154      1.08691  1_545   S
    H16    C153      1.08690      .   S
    N328   C153      1.35321      .   S
    N328   C169      1.38239      .   S
    N329   C154      1.35322      .   S
    N329   C170      1.38238      .   S
    N330   C155      1.35322      .   S
    N330   C171      1.38238      .   S
    N331   C156      1.35322      .   S
    N331   C172      1.38237      .   S
    C156   N339      1.34780      .   S
    C154   N337      1.34781      .   S
    C153   N336      1.34781      .   S
    C155   N338      1.34781      .   S
    C199   N352      1.35330  1_655   S
    C199   H51       1.08691  1_545   S
    C200   N353      1.35328  1_655   S
    C200   H50       1.08683      .   S
    C197   N354      1.35311      .   S
    C197   H49       1.08692  1_545   S
    C198   N355      1.35312      .   S
    C198   H48       1.08683      .   S
    N354   Zn1       1.97545      .   S
    N353   Zn0       1.97544      .   S
    N352   Zn32      1.97542      .   S
    N355   Zn2       1.97544      .   S
    C169   N332      1.34923      .   S
    C169   C165      1.40613      .   S
    C170   N333      1.34924      .   S
    C170   C166      1.40613      .   S
    C171   N334      1.34923      .   S
    C171   C167      1.40613      .   S
    C172   N335      1.34923      .   S
    C172   C168      1.40613      .   S
    N332   C157      1.34201      .   S
    N335   C160      1.34200      .   S
    N334   C159      1.34201      .   S
    N333   C158      1.34200      .   S
    N337   C166      1.39570      .   S
    N337   Zn32      2.02707  1_565   S
    N339   C168      1.39570      .   S
    N339   Zn1       2.02706  1_565   S
    N336   C165      1.39570      .   S
    N336   Zn0       2.02710      .   S
    N338   C167      1.39570      .   S
    N338   Zn2       2.02710      .   S
    C165   C161      1.41890      .   S
    C166   C162      1.41890      .   S
    C167   C163      1.41890      .   S
    C168   C164      1.41889      .   S
    C160   H22       1.09289      .   S
    C160   N343      1.34332      .   S
    C159   H21       1.09289      .   S
    C159   N342      1.34330      .   S
    C158   H20       1.09289      .   S
    C158   N341      1.34330      .   S
    C157   H19       1.09290      .   S
    C157   N340      1.34330      .   S
    Zn0    N413      2.04244      .   S
    Zn0    O416      1.98912      .   S
    Zn2    N415      2.04247      .   S
    Zn2    O418      1.98912      .   S
    Zn1    N414      2.04250      .   S
    Zn1    O419      1.98919  1_545   S
    Zn32   N412      2.04244      .   S
    Zn32   O417      1.98920  1_545   S
    H145   C320      1.08939      .   S
    H148   C323      1.08938      .   S
    H146   C321      1.08929      .   S
    H147   C322      1.08924      .   S
    C162   N341      1.35736      .   S
    C162   N345      1.35846      .   S
    C163   N342      1.35737      .   S
    C163   N346      1.35846      .   S
    C164   N343      1.35737      .   S
    C164   N347      1.35846      .   S
    C161   N340      1.35735      .   S
    C161   N344      1.35846      .   S
    C323   N415      1.34940      .   S
    C323   C327      1.38866      .   S
    C320   N412      1.34941      .   S
    C320   C324      1.38868      .   S
    C321   N413      1.34942      .   S
    C321   C325      1.38878      .   S
    C322   N414      1.34941      .   S
    C322   C326      1.38785      .   S
    N415   C319      1.34976      .   S
    N414   C318      1.34975      .   S
    N413   C317      1.34981      .   S
    N412   C316      1.34982      .   S
    O416   C175      1.30483  1_455   S
    O417   C176      1.30483  1_455   S
    O418   C173      1.30523      .   S
    O419   C174      1.30468      .   S
    H28    N345      1.02481      .   S
    H29    N346      1.02481      .   S
    H30    N347      1.02482      .   S
    H27    N344      1.02482      .   S
    O421   C173      1.24275      .   S
    O420   C174      1.24269  1_545   S
    O422   C176      1.24270  1_545   S
    O423   C175      1.24265      .   S
    N344   H23       1.02771      .   S
    N345   H24       1.02772      .   S
    N347   H26       1.02772      .   S
    N346   H25       1.02771      .   S
    H151   C326      1.08837      .   S
    H152   C327      1.08847      .   S
    H149   C324      1.08843      .   S
    H150   C325      1.08844      .   S
    C174   C182      1.50841      .   S
    C175   C183      1.50863      .   S
    C176   C184      1.50861      .   S
    C173   C181      1.50794      .   S
    C326   C314      1.39855      .   S
    C327   C315      1.39754      .   S
    C324   C312      1.39761      .   S
    C325   C313      1.39756      .   S
    H31    C177      1.08783      .   S
    H33    C178      1.08782      .   S
    H34    C179      1.08783      .   S
    H35    C180      1.08783      .   S
    C317   H142      1.09031      .   S
    C317   C309      1.38592      .   S
    C316   H141      1.09029      .   S
    C316   C308      1.38593      .   S
    C319   H144      1.09030      .   S
    C319   C311      1.38592      .   S
    C318   H143      1.09032      .   S
    C318   C310      1.38586      .   S
    C177   C181      1.39775      .   S
    C177   C185      1.38530      .   S
    C180   C184      1.39774      .   S
    C180   C188      1.38573      .   S
    C178   C182      1.39772      .   S
    C178   C186      1.38530      .   S
    C179   C183      1.39774      .   S
    C179   C187      1.38585      .   S
    C182   C194      1.39772      .   S
    C184   C196      1.39748      .   S
    C183   C195      1.39748      .   S
    C181   C193      1.39747      .   S
    C315   C311      1.39778      .   S
    C315   C307      1.50810      .   S
    C314   C310      1.39777      .   S
    C314   C306      1.50811      .   S
    C312   C308      1.39777      .   S
    C312   C304      1.50800      .   S
    C313   C309      1.39777      .   S
    C313   C305      1.50801      .   S
    C308   H137      1.08782      .   S
    C309   H138      1.08786      .   S
    C311   H140      1.08785      .   S
    C310   H139      1.08783      .   S
    H127   N411      1.02755      .   S
    H126   N410      1.02755      .   S
    H125   N409      1.02755      .   S
    H124   N408      1.02755      .   S
    H36    C185      1.09027      .   S
    H37    C186      1.09027      .   S
    H38    C187      1.09030      .   S
    H39    C188      1.09028      .   S
    C185   N348      1.35027      .   S
    C186   N349      1.35030      .   S
    C188   N351      1.34979      .   S
    C187   N350      1.34968      .   S
    C193   H44       1.08842      .   S
    C193   C189      1.38224      .   S
    C196   H47       1.08842      .   S
    C196   C192      1.38857      .   S
    C195   H46       1.08841      .   S
    C195   C191      1.38857      .   S
    C194   H45       1.08841      .   S
    C194   C190      1.38858      .   S
    C305   O445      1.24276      .   S
    C305   O441      1.30504      .   S
    C307   O447      1.24278      .   S
    C307   O443      1.30503      .   S
    C306   O446      1.24274      .   S
    C306   O442      1.30503      .   S
    C304   O444      1.24275      .   S
    C304   O440      1.30508      .   S
    N408   H128      1.02483      .   S
    N408   C292      1.35847      .   S
    N409   H129      1.02483      .   S
    N409   C293      1.35850      .   S
    N410   H130      1.02482      .   S
    N410   C294      1.35849      .   S
    N411   H131      1.02484      .   S
    N411   C295      1.35847      .   S
    O443   Zn14      1.98981      .   S
    O440   Zn11      1.98980      .   S
    O441   Zn12      1.98981      .   S
    O442   Zn13      1.98978      .   S
    N348   C189      1.34873      .   S
    N348   Zn11      2.04168      .   S
    N349   C190      1.34928      .   S
    N349   Zn12      2.04167      .   S
    N350   C191      1.34930      .   S
    N350   Zn13      2.04166      .   S
    N351   C192      1.34928      .   S
    N351   Zn14      2.04168      .   S
    C189   H40       1.09681      .   S
    C192   H43       1.08935      .   S
    C191   H42       1.08937      .   S
    C190   H41       1.08935      .   S
    N407   C293      1.35764      .   S
    N407   C291      1.34581      .   S
    N405   C295      1.35751  1_455   S
    N405   C289      1.34329      .   S
    N215   C294      1.35750  1_455   S
    N215   C288      1.34329      .   S
    N406   C292      1.35733      .   S
    N406   C290      1.34250      .   S
    C295   C299      1.41768      .   S
    C294   C298      1.41768      .   S
    C293   C297      1.41769      .   S
    C292   C296      1.41769      .   S
    H123   C291      1.09287      .   S
    H121   C289      1.09287      .   S
    H122   C290      1.09275      .   S
    H120   C288      1.09287      .   S
    Zn14   N214      2.02575      .   S
    Zn14   N379      1.97677      .   S
    Zn13   N213      2.02576      .   S
    Zn13   N378      1.97676      .   S
    Zn12   N212      2.02574      .   S
    Zn12   N377      1.97678      .   S
    Zn11   N211      2.02576      .   S
    Zn11   N376      1.97677      .   S
    C290   N209      1.34285      .   S
    C288   N404      1.34132      .   S
    C289   N208      1.34132      .   S
    C291   N210      1.34194      .   S
    C296   N211      1.39627      .   S
    C296   C302      1.40732      .   S
    C297   N212      1.39627      .   S
    C297   C303      1.40733      .   S
    C299   N214      1.39625      .   S
    C299   C301      1.40746  1_655   S
    C298   N213      1.39627      .   S
    C298   C300      1.40747  1_655   S
    N404   C300      1.34927      .   S
    N208   C301      1.34928      .   S
    N210   C303      1.34920      .   S
    N209   C302      1.34921      .   S
    H80    C245      1.08696      .   S
    H82    C247      1.08696      .   S
    H83    C248      1.08687      .   S
    H81    C246      1.08687      .   S
    N378   C247      1.35319      .   S
    N379   C248      1.35319      .   S
    N377   C246      1.35318      .   S
    N376   C245      1.35318      .   S
