# CIF file generated by openbabel 2.4.90, see http://openbabel.sf.net
data_I
_chemical_name_common ''
_cell_length_a 10.95
_cell_length_b 13.18
_cell_length_c 13.821
_cell_angle_alpha 61.782
_cell_angle_beta 71.832
_cell_angle_gamma 89.868
_space_group_name_H-M_alt 'P 1'
_space_group_name_Hall 'P 1'
loop_
    _symmetry_equiv_pos_as_xyz
    x,y,z
loop_
    _atom_site_label
    _atom_site_type_symbol
    _atom_site_fract_x
    _atom_site_fract_y
    _atom_site_fract_z
    _atom_site_occupancy
    Zr0     Zr   0.75007   0.91560   0.00080   1.000
    Zr1     Zr   0.25019   0.08440   0.99869   1.000
    Zr2     Zr   0.75095   0.97540   0.16554   1.000
    Zr3     Zr   0.74963   0.13989   0.83781   1.000
    Zr4     Zr   0.24897   0.02447   0.83418   1.000
    Zr5     Zr   0.25066   0.86013   0.16172   1.000
    O6      O    0.75051   0.94550   0.08317   1.000
    O7      O    0.74985   0.02775   0.91931   1.000
    O8      O    0.25043   0.97226   0.08020   1.000
    O9      O    0.24958   0.05444   0.91643   1.000
    N10     N    0.50024   0.50006   0.49984   1.000
    O11     O    0.63102   0.65846   0.28181   1.000
    O12     O    0.36922   0.34156   0.71782   1.000
    N13     N    0.00033   0.00024   0.49952   1.000
    O14     O    0.13101   0.05978   0.28108   1.000
    O15     O    0.86952   0.94049   0.71815   1.000
    N16     N    0.96552   0.03315   0.10709   1.000
    O17     O    0.05089   0.04981   0.07635   1.000
    O18     O    0.89768   0.01487   0.12534   1.000
    N19     N    0.53479   0.13941   0.89169   1.000
    O20     O    0.44945   0.12591   0.92174   1.000
    O21     O    0.60270   0.13929   0.87492   1.000
    N22     N    0.03451   0.96678   0.89286   1.000
    O23     O    0.94925   0.95013   0.92347   1.000
    O24     O    0.10227   0.98506   0.87457   1.000
    N25     N    0.46550   0.86058   0.10769   1.000
    O26     O    0.39760   0.86071   0.12451   1.000
    O27     O    0.55083   0.87408   0.07766   1.000
loop_
    _geom_bond_atom_site_label_1
    _geom_bond_atom_site_label_2
    _geom_bond_distance
    _geom_bond_site_symmetry_2
    _ccdc_geom_bond_type
    Zr0    O6        1.37072      .   S
    Zr2    O6        1.37072      .   S
    Zr0    O7        1.37138  1_564   S
    Zr3    O7        1.37138      .   S
    Zr5    O8        1.37146      .   S
    Zr1    O8        1.37146  1_546   S
    Zr4    O9        1.37025      .   S
    Zr1    O9        1.37025      .   S
    N10    O11       2.61981      .   S
    Zr0    O11       3.56159      .   S
    N10    O12       2.62019      .   S
    Zr1    O12       3.56073      .   S
    N13    O14       2.61710      .   S
    Zr1    O14       3.55936  1_556   S
    N13    O15       2.61878  1_445   S
    Zr0    O15       3.56134  1_554   S
    N16    O17       0.87608  1_655   S
    Zr1    O17       2.05029  1_556   S
    N16    O18       0.70713      .   S
    Zr2    O18       1.52801  1_565   S
    N19    O20       0.87540      .   S
    Zr1    O20       2.04919      .   S
    N19    O21       0.70674      .   S
    Zr3    O21       1.52758      .   S
    N22    O23       0.87497  1_455   S
    Zr0    O23       2.04870  1_554   S
    N22    O24       0.70624      .   S
    Zr4    O24       1.52715  1_545   S
    N25    O26       0.70673      .   S
    Zr5    O26       1.52756      .   S
    N25    O27       0.87531      .   S
    Zr0    O27       2.04891      .   S
