# CIF file generated by openbabel 2.4.90, see http://openbabel.sf.net
data_I
_chemical_name_common ''
_cell_length_a 13.563
_cell_length_b 13.894
_cell_length_c 16.09
_cell_angle_alpha 92.116
_cell_angle_beta 97.132
_cell_angle_gamma 91.853
_space_group_name_H-M_alt 'P 1'
_space_group_name_Hall 'P 1'
loop_
    _symmetry_equiv_pos_as_xyz
    x,y,z
loop_
    _atom_site_label
    _atom_site_type_symbol
    _atom_site_fract_x
    _atom_site_fract_y
    _atom_site_fract_z
    _atom_site_occupancy
    H0      H    0.27038   0.30306   0.69722   1.000
    H1      H    0.09195   0.23923   0.67848   1.000
    H2      H    0.02291   0.45373   0.85757   1.000
    H3      H    0.27494   0.47296   0.98752   1.000
    H4      H    0.26264   0.77817   0.03381   1.000
    H5      H    0.17022   0.79377   0.89091   1.000
    H6      H    0.46826   0.28026   0.47794   1.000
    H7      H    0.79741   0.15954   0.42767   1.000
    H8      H    0.77973   0.25511   0.55904   1.000
    H9      H    0.64757   0.99721   0.41622   1.000
    H10     H    0.58927   0.90655   0.34260   1.000
    H11     H    0.72152   0.91333   0.36723   1.000
    H12     H    0.73497   0.92776   0.21311   1.000
    H13     H    0.60288   0.92656   0.18887   1.000
    H14     H    0.67641   0.02726   0.16132   1.000
    H15     H    0.28272   0.27205   0.19256   1.000
    H16     H    0.23082   0.09626   0.16605   1.000
    H17     H    0.46311   0.02174   0.35454   1.000
    H18     H    0.03232   0.66053   0.62496   1.000
    H19     H    0.92748   0.59047   0.65052   1.000
    H20     H    0.92870   0.71868   0.66194   1.000
    H21     H    0.90704   0.70231   0.81543   1.000
    H22     H    0.90731   0.57428   0.80211   1.000
    H23     H    0.99635   0.63610   0.87898   1.000
    H24     H    0.72973   0.69659   0.29956   1.000
    H25     H    0.90813   0.76046   0.31828   1.000
    H26     H    0.97716   0.54614   0.13904   1.000
    H27     H    0.72522   0.52701   0.00908   1.000
    H28     H    0.73731   0.22179   0.96265   1.000
    H29     H    0.82962   0.20605   0.10557   1.000
    H30     H    0.53183   0.71987   0.51847   1.000
    H31     H    0.20253   0.84004   0.56900   1.000
    H32     H    0.22027   0.74464   0.43754   1.000
    H33     H    0.35240   0.00259   0.58054   1.000
    H34     H    0.41080   0.09313   0.65423   1.000
    H35     H    0.27854   0.08642   0.62968   1.000
    H36     H    0.26520   0.07178   0.78380   1.000
    H37     H    0.39731   0.07293   0.80794   1.000
    H38     H    0.32378   0.00000   0.83545   1.000
    H39     H    0.71719   0.72790   0.80405   1.000
    H40     H    0.76911   0.90369   0.83055   1.000
    H41     H    0.53695   0.97822   0.64196   1.000
    H42     H    0.00000   0.33877   0.37163   1.000
    H43     H    0.07234   0.40880   0.34625   1.000
    H44     H    0.07097   0.28060   0.33462   1.000
    H45     H    0.09276   0.29712   0.18121   1.000
    H46     H    0.09273   0.42515   0.19468   1.000
    H47     H    0.00363   0.36358   0.11770   1.000
    C48     C    0.24474   0.41690   0.78425   1.000
    C49     C    0.21451   0.33602   0.73105   1.000
    C50     C    0.11667   0.30051   0.72103   1.000
    C51     C    0.04745   0.34343   0.76702   1.000
    C52     C    0.07743   0.42307   0.82097   1.000
    C53     C    0.17467   0.46216   0.82910   1.000
    C54     C    0.19936   0.54955   0.88544   1.000
    C55     C    0.25048   0.54259   0.96571   1.000
    C56     C    0.27330   0.62411   0.01906   1.000
    C57     C    0.24438   0.71488   0.99207   1.000
    C58     C    0.19268   0.72327   0.91237   1.000
    C59     C    0.16945   0.64110   0.85919   1.000
    C60     C    0.12247   0.65133   0.77086   1.000
    C61     C    0.62234   0.27314   0.52578   1.000
    C62     C    0.53961   0.25236   0.46621   1.000
    C63     C    0.54746   0.19790   0.39282   1.000
    C64     C    0.64161   0.16420   0.37943   1.000
    C65     C    0.72489   0.18497   0.43919   1.000
    C66     C    0.71541   0.23897   0.51232   1.000
    C67     C    0.65295   0.11657   0.29634   1.000
    C68     C    0.65448   0.95602   0.35816   1.000
    C69     C    0.66967   0.97295   0.20788   1.000
    C70     C    0.40491   0.24441   0.28525   1.000
    C71     C    0.32232   0.21596   0.22694   1.000
    C72     C    0.29349   0.11930   0.21233   1.000
    C73     C    0.34506   0.04917   0.25862   1.000
    C74     C    0.42638   0.07730   0.31750   1.000
    C75     C    0.45879   0.17391   0.33055   1.000
    C76     C    0.97532   0.65539   0.66713   1.000
    C77     C    0.95483   0.63985   0.81654   1.000
    C78     C    0.75535   0.58284   0.21243   1.000
    C79     C    0.78558   0.66368   0.26568   1.000
    C80     C    0.88342   0.69921   0.27571   1.000
    C81     C    0.95262   0.65639   0.22962   1.000
    C82     C    0.92266   0.57675   0.17567   1.000
    C83     C    0.82541   0.53765   0.16752   1.000
    C84     C    0.80070   0.45030   0.11115   1.000
    C85     C    0.74962   0.45734   0.03087   1.000
    C86     C    0.72675   0.37586   0.97747   1.000
    C87     C    0.75559   0.28506   0.00000   1.000
    C88     C    0.80724   0.27658   0.08414   1.000
    C89     C    0.83050   0.35871   0.13737   1.000
    C90     C    0.87738   0.34834   0.22571   1.000
    C91     C    0.37770   0.72683   0.47071   1.000
    C92     C    0.46045   0.74766   0.53026   1.000
    C93     C    0.45257   0.80204   0.60368   1.000
    C94     C    0.35838   0.83556   0.61715   1.000
    C95     C    0.27508   0.81474   0.55742   1.000
    C96     C    0.28459   0.76083   0.48424   1.000
    C97     C    0.34703   0.88304   0.70029   1.000
    C98     C    0.34556   0.04369   0.63866   1.000
    C99     C    0.33049   0.02656   0.78894   1.000
    C100    C    0.59507   0.75556   0.71130   1.000
    C101    C    0.67763   0.78399   0.76964   1.000
    C102    C    0.70647   0.88064   0.78424   1.000
    C103    C    0.65494   0.95077   0.73792   1.000
    C104    C    0.57364   0.92266   0.67901   1.000
    C105    C    0.54123   0.82605   0.66596   1.000
    C106    C    0.02444   0.34394   0.32951   1.000
    C107    C    0.04509   0.35967   0.18015   1.000
    N108    N    0.02306   0.65005   0.75346   1.000
    N109    N    0.66189   0.02077   0.28931   1.000
    N110    N    0.00000   0.34949   0.24317   1.000
    N111    N    0.33818   0.00000   0.70744   1.000
    O112    O    0.17763   0.66118   0.71277   1.000
    O113    O    0.65408   0.16833   0.23256   1.000
    O114    O    0.82215   0.33845   0.28374   1.000
    O115    O    0.34586   0.83114   0.76397   1.000
loop_
    _geom_bond_atom_site_label_1
    _geom_bond_atom_site_label_2
    _geom_bond_distance
    _geom_bond_site_symmetry_2
    _ccdc_geom_bond_type
    C87    C88       1.45564      .   S
    C87    H28       1.05123  1_554   S
    C87    C86       1.38076  1_554   S
    H27    C85       1.08911      .   S
    C56    C55       1.39833  1_554   S
    C56    C57       1.40104  1_554   S
    C85    C84       1.39624      .   S
    C85    C86       1.39835  1_554   S
    H4     C57       1.08941  1_554   S
    C88    H29       1.09076      .   S
    C88    C89       1.40447      .   S
    C84    C89       1.41114      .   S
    C84    C83       1.49170      .   S
    H47    C107      1.09286      .   S
    C89    C90       1.49737      .   S
    H26    C82       1.08855      .   S
    H14    C69       1.09233  1_545   S
    H16    C72       1.08953      .   S
    C83    C82       1.39911      .   S
    C83    C78       1.41239      .   S
    C82    C81       1.39829      .   S
    C107   H45       1.09925      .   S
    C107   H46       1.09937      .   S
    C107   N110      1.25745      .   S
    H13    C69       1.09940      .   S
    H15    C71       1.08941      .   S
    C69    H12       1.09865      .   S
    C69    N109      1.46430  1_565   S
    C72    C71       1.38990      .   S
    C72    C73       1.40057      .   S
    C78    C79       1.40556      .   S
    C90    N110      1.65140  1_655   S
    C90    O114      1.27604      .   S
    C71    C70       1.40502      .   S
    C81    C80       1.40037      .   S
    O113   C67       1.27601      .   S
    N110   C106      1.39310      .   S
    C73    C74       1.39719      .   S
    C79    C80       1.38891      .   S
    C79    H24       1.08933      .   S
    C80    H25       1.08970      .   S
    C70    C75       1.41122      .   S
    N109   C67       1.34228      .   S
    N109   C68       1.46351  1_545   S
    C67    C64       1.49711      .   S
    C74    C75       1.39897      .   S
    C74    H17       1.08831      .   S
    C106   H44       1.09910      .   S
    C106   H43       1.09891      .   S
    C106   H42       0.79506      .   S
    C75    C63       1.48714      .   S
    H10    C68       1.10020      .   S
    C68    H11       1.09918      .   S
    C68    H9        1.09308      .   S
    C64    C63       1.41273      .   S
    C64    C65       1.40451      .   S
    C63    C62       1.39590      .   S
    H7     C65       1.09065      .   S
    H32    C96       1.09008      .   S
    C65    C66       1.39385      .   S
    C62    H6        1.08933      .   S
    C62    C61       1.39747      .   S
    C91    C96       1.40164      .   S
    C91    C92       1.39748      .   S
    C96    C95       1.39383      .   S
    C66    C61       1.40166      .   S
    C66    H8        1.09007      .   S
    H30    C92       1.08932      .   S
    C92    C93       1.39586      .   S
    C95    H31       1.09064      .   S
    C95    C94       1.40448      .   S
    H33    C98       1.09307      .   S
    C93    C94       1.41268      .   S
    C93    C105      1.48715      .   S
    C94    C97       1.49702      .   S
    H18    C76       1.09246  1_455   S
    H35    C98       1.09919      .   S
    C98    H34       1.10021      .   S
    C98    N111      1.29479      .   S
    H41    C104      1.08831      .   S
    H19    C76       1.09890      .   S
    H20    C76       1.09911      .   S
    C105   C104      1.39895      .   S
    C105   C100      1.41118      .   S
    C76    N108      1.46341  1_655   S
    H1     C50       1.08969      .   S
    C104   C103      1.39719      .   S
    H0     C49       1.08933      .   S
    C97    N111      1.63417  1_565   S
    C97    O115      1.27606      .   S
    N111   C99       1.36643      .   S
    C100   C101      1.40501      .   S
    O112   C60       1.27604      .   S
    C50    C49       1.38891      .   S
    C50    C51       1.40036      .   S
    C49    C48       1.40555      .   S
    C103   C102      1.40056      .   S
    N108   C60       1.34206      .   S
    N108   C77       1.46352  1_455   S
    C51    C52       1.39825      .   S
    C101   C102      1.38985      .   S
    C101   H39       1.08942      .   S
    C60    C59       1.49732      .   S
    H36    C99       1.09868      .   S
    C102   H40       1.08952      .   S
    C48    C53       1.41241      .   S
    C99    H37       1.09941      .   S
    C99    H38       0.86005      .   S
    H22    C77       1.09937      .   S
    H21    C77       1.09924      .   S
    C77    H23       1.09288      .   S
    C52    C53       1.39908      .   S
    C52    H2        1.08854      .   S
    C53    C54       1.49169      .   S
    C59    C54       1.41117      .   S
    C59    C58       1.40448      .   S
    C54    C55       1.39618      .   S
    H5     C58       1.09077      .   S
    C58    C57       1.39386      .   S
    C55    H3        1.08908      .   S
