# CIF file generated by openbabel 2.4.90, see http://openbabel.sf.net
data_I
_chemical_name_common ''
_cell_length_a 13.563
_cell_length_b 13.894
_cell_length_c 16.09
_cell_angle_alpha 92.116
_cell_angle_beta 97.132
_cell_angle_gamma 91.853
_space_group_name_H-M_alt 'P 1'
_space_group_name_Hall 'P 1'
loop_
    _symmetry_equiv_pos_as_xyz
    x,y,z
loop_
    _atom_site_label
    _atom_site_type_symbol
    _atom_site_fract_x
    _atom_site_fract_y
    _atom_site_fract_z
    _atom_site_occupancy
    C0      C    0.35142   0.45197   0.78966   1.000
    C1      C    0.94201   0.30473   0.75924   1.000
    C2      C    0.32961   0.61293   0.10440   1.000
    C3      C    0.60913   0.33316   0.60274   1.000
    C4      C    0.43281   0.34980   0.29425   1.000
    C5      C    0.31259   0.94476   0.24725   1.000
    C6      C    0.64864   0.54784   0.20690   1.000
    C7      C    0.05802   0.69520   0.23733   1.000
    C8      C    0.67046   0.38709   0.89213   1.000
    C9      C    0.39090   0.66684   0.39374   1.000
    C10     C    0.56717   0.65017   0.70226   1.000
    C11     C    0.68744   0.05516   0.74931   1.000
