# CIF file generated by openbabel 2.4.90, see http://openbabel.sf.net
data_I
_chemical_name_common ''
_cell_length_a 13.563
_cell_length_b 13.894
_cell_length_c 16.09
_cell_angle_alpha 92.116
_cell_angle_beta 97.132
_cell_angle_gamma 91.853
_space_group_name_H-M_alt 'P 1'
_space_group_name_Hall 'P 1'
loop_
    _symmetry_equiv_pos_as_xyz
    x,y,z
loop_
    _atom_site_label
    _atom_site_type_symbol
    _atom_site_fract_x
    _atom_site_fract_y
    _atom_site_fract_z
    _atom_site_occupancy
    N0      N    0.11209   0.56064   0.81336   1.000
    N1      N    0.43692   0.89079   0.66566   1.000
    N2      N    0.88980   0.43905   0.18311   1.000
    N3      N    0.56310   0.11068   0.33098   1.000
    Zr4     Zr   0.37671   0.62108   0.24775   1.000
    O5      O    0.29174   0.60533   0.09265   1.000
    O6      O    0.16213   0.58925   0.22802   1.000
    O7      O    0.39366   0.70744   0.39835   1.000
    O8      O    0.41134   0.83745   0.26985   1.000
    Zr9     Zr   0.62331   0.37886   0.74876   1.000
    O10     O    0.58869   0.16287   0.72670   1.000
    O11     O    0.60637   0.29289   0.59819   1.000
    O12     O    0.70876   0.39456   0.90386   1.000
    O13     O    0.83836   0.41061   0.76851   1.000
    O14     O    0.53671   0.59375   0.72349   1.000
    O15     O    0.40961   0.46704   0.76724   1.000
    O16     O    0.59085   0.53277   0.22927   1.000
    O17     O    0.46328   0.40652   0.27305   1.000
loop_
    _geom_bond_atom_site_label_1
    _geom_bond_atom_site_label_2
    _geom_bond_distance
    _geom_bond_site_symmetry_2
    _ccdc_geom_bond_type
    Zr4    O5        2.61407      .   S
    N0     O5        4.84702  1_556   S
    Zr4    O6        2.90572      .   S
    N2     O6        4.15310  1_655   S
    Zr4    O7        2.64445      .   S
    N1     O7        4.87850      .   S
    Zr4    O8        3.02873      .   S
    N3     O8        4.28164  1_545   S
    Zr9    O10       3.02346      .   S
    N1     O10       4.26761  1_565   S
    Zr9    O11       2.64188      .   S
    N3     O11       4.86953      .   S
    Zr9    O12       2.61599      .   S
    N2     O12       4.85352  1_554   S
    Zr9    O13       2.91189      .   S
    N0     O13       4.16807  1_455   S
    Zr9    O14       3.26452      .   S
    N1     O14       4.47912      .   S
    Zr9    O15       3.22595      .   S
    N0     O15       4.42008      .   S
    Zr4    O16       3.23223      .   S
    N2     O16       4.43901      .   S
    Zr4    O17       3.26009      .   S
    N3     O17       4.46387      .   S
