# CIF file generated by openbabel 2.4.90, see http://openbabel.sf.net
data_I
_chemical_name_common ''
_cell_length_a 13.563
_cell_length_b 13.894
_cell_length_c 16.09
_cell_angle_alpha 92.116
_cell_angle_beta 97.132
_cell_angle_gamma 91.853
_space_group_name_H-M_alt 'P 1'
_space_group_name_Hall 'P 1'
loop_
    _symmetry_equiv_pos_as_xyz
    x,y,z
loop_
    _atom_site_label
    _atom_site_type_symbol
    _atom_site_fract_x
    _atom_site_fract_y
    _atom_site_fract_z
    _atom_site_occupancy
    Zr0     Zr   0.56388   0.44526   0.73950   1.000
    Zr1     Zr   0.24885   0.75871   0.23945   1.000
    Zr2     Zr   0.34516   0.66913   0.74563   1.000
    Zr3     Zr   0.43620   0.55471   0.25701   1.000
    Zr4     Zr   0.75116   0.24124   0.75704   1.000
    Zr5     Zr   0.65466   0.33047   0.25081   1.000
    Zr6     Zr   0.35142   0.45197   0.78966   1.000
    Zr7     Zr   0.94201   0.30473   0.75924   1.000
    Zr8     Zr   0.32961   0.61293   0.10440   1.000
    Zr9     Zr   0.60913   0.33316   0.60274   1.000
    Zr10    Zr   0.43281   0.34980   0.29425   1.000
    Zr11    Zr   0.31259   0.94476   0.24725   1.000
    Zr12    Zr   0.64864   0.54784   0.20690   1.000
    Zr13    Zr   0.05802   0.69520   0.23733   1.000
    Zr14    Zr   0.67046   0.38709   0.89213   1.000
    Zr15    Zr   0.39090   0.66684   0.39374   1.000
    Zr16    Zr   0.56717   0.65017   0.70226   1.000
    Zr17    Zr   0.68744   0.05516   0.74931   1.000
    Zr18    Zr   0.37614   0.53892   0.81615   1.000
    Zr19    Zr   0.41225   0.39182   0.76772   1.000
    Zr20    Zr   0.35401   0.88610   0.29913   1.000
    Zr21    Zr   0.24494   0.91906   0.18796   1.000
    Zr22    Zr   0.52447   0.36699   0.60836   1.000
    Zr23    Zr   0.68353   0.34996   0.65966   1.000
    Zr24    Zr   0.35374   0.52856   0.12465   1.000
    Zr25    Zr   0.35268   0.68780   0.15257   1.000
    Zr26    Zr   0.91186   0.24180   0.70169   1.000
    Zr27    Zr   0.88692   0.33754   0.81225   1.000
    Zr28    Zr   0.52491   0.37893   0.30913   1.000
    Zr29    Zr   0.36336   0.40822   0.28503   1.000
    Zr30    Zr   0.62388   0.46089   0.18043   1.000
    Zr31    Zr   0.58783   0.60807   0.22875   1.000
    Zr32    Zr   0.64600   0.11385   0.69745   1.000
    Zr33    Zr   0.75514   0.08082   0.80857   1.000
    Zr34    Zr   0.47557   0.63303   0.38809   1.000
    Zr35    Zr   0.31649   0.65004   0.33683   1.000
    Zr36    Zr   0.64632   0.47146   0.87189   1.000
    Zr37    Zr   0.64740   0.31223   0.84394   1.000
    Zr38    Zr   0.08815   0.75817   0.29486   1.000
    Zr39    Zr   0.11308   0.66246   0.18428   1.000
    Zr40    Zr   0.47507   0.62104   0.68735   1.000
    Zr41    Zr   0.63663   0.59176   0.71150   1.000
    O42     O    0.34167   0.57074   0.11453   1.000
    O43     O    0.34115   0.65037   0.12848   1.000
    O44     O    0.39497   0.54163   0.19083   1.000
    O45     O    0.30077   0.72326   0.19601   1.000
    O46     O    0.63626   0.50436   0.19367   1.000
    O47     O    0.63927   0.39568   0.21562   1.000
    O48     O    0.08555   0.67883   0.21080   1.000
    O49     O    0.18096   0.71059   0.21186   1.000
    O50     O    0.24690   0.83889   0.21371   1.000
    O51     O    0.27877   0.93191   0.21760   1.000
    O52     O    0.61823   0.57796   0.21782   1.000
    O53     O    0.51201   0.58139   0.24288   1.000
    O54     O    0.07308   0.72668   0.26610   1.000
    O55     O    0.16850   0.75844   0.26716   1.000
    O56     O    0.30143   0.82241   0.26929   1.000
    O57     O    0.28267   0.70438   0.28814   1.000
    O58     O    0.33330   0.91543   0.27319   1.000
    O59     O    0.58979   0.35470   0.27997   1.000
    O60     O    0.39978   0.48147   0.27102   1.000
    O61     O    0.45588   0.59387   0.32255   1.000
    O62     O    0.39808   0.37901   0.28964   1.000
    O63     O    0.47886   0.36436   0.30169   1.000
    O64     O    0.35370   0.65844   0.36529   1.000
    O65     O    0.43324   0.64994   0.39092   1.000
    O66     O    0.56680   0.35008   0.60555   1.000
    O67     O    0.64633   0.34156   0.63120   1.000
    O68     O    0.54418   0.40613   0.67393   1.000
    O69     O    0.71734   0.29560   0.70835   1.000
    O70     O    0.52112   0.63561   0.69481   1.000
    O71     O    0.41011   0.64509   0.71649   1.000
    O72     O    0.66672   0.08451   0.72338   1.000
    O73     O    0.69858   0.17755   0.72725   1.000
    O74     O    0.83151   0.24152   0.72936   1.000
    O75     O    0.92693   0.27327   0.73047   1.000
    O76     O    0.60190   0.62097   0.70688   1.000
    O77     O    0.60026   0.51851   0.72550   1.000
    O78     O    0.48806   0.41854   0.75361   1.000
    O79     O    0.60510   0.45836   0.80569   1.000
    O80     O    0.36065   0.60402   0.78089   1.000
    O81     O    0.72129   0.06799   0.77894   1.000
    O82     O    0.75315   0.16103   0.78281   1.000
    O83     O    0.81904   0.28939   0.78465   1.000
    O84     O    0.69928   0.27674   0.80049   1.000
    O85     O    0.91446   0.32114   0.78575   1.000
    O86     O    0.38183   0.42189   0.77869   1.000
    O87     O    0.36378   0.49544   0.80291   1.000
    O88     O    0.65893   0.34966   0.86803   1.000
    O89     O    0.65839   0.42928   0.88201   1.000
    N90     N    0.11209   0.56064   0.81336   1.000
    O91     O    0.20509   0.49754   0.80016   1.000
    O92     O    0.20677   0.58958   0.93754   1.000
    O93     O    0.05341   0.44236   0.78825   1.000
    O94     O    0.18674   0.61290   0.77128   1.000
    N95     N    0.43692   0.89079   0.66566   1.000
    O96     O    0.50902   0.79683   0.68622   1.000
    O97     O    0.55406   0.94688   0.70464   1.000
    O98     O    0.39121   0.82046   0.71023   1.000
    O99     O    0.41061   0.79381   0.54894   1.000
    N100    N    0.88980   0.43905   0.18311   1.000
    O101    O    0.81410   0.38675   0.22519   1.000
    O102    O    0.79420   0.41026   0.05896   1.000
    O103    O    0.79589   0.50219   0.19639   1.000
    O104    O    0.94756   0.55742   0.20829   1.000
    N105    N    0.56310   0.11068   0.33098   1.000
    O106    O    0.60874   0.18004   0.28633   1.000
    O107    O    0.58942   0.20692   0.44762   1.000
    O108    O    0.49098   0.20389   0.31036   1.000
    O109    O    0.44596   0.05383   0.29196   1.000
loop_
    _geom_bond_atom_site_label_1
    _geom_bond_atom_site_label_2
    _geom_bond_distance
    _geom_bond_site_symmetry_2
    _ccdc_geom_bond_type
    Zr8    O42       0.63525      .   S
    Zr24   O42       0.63525      .   S
    Zr8    O43       0.64032      .   S
    Zr25   O43       0.64032      .   S
    Zr24   O44       1.14490      .   S
    Zr3    O44       1.14490      .   S
    Zr25   O45       1.16031      .   S
    Zr1    O45       1.16031      .   S
    Zr30   O46       0.64301      .   S
    Zr12   O46       0.64301      .   S
    Zr30   O47       1.09807      .   S
    Zr5    O47       1.09807      .   S
    Zr39   O48       0.64128      .   S
    Zr13   O48       0.64128      .   S
    Zr39   O49       1.15269      .   S
    Zr1    O49       1.15269      .   S
    Zr21   O50       1.20267      .   S
    Zr1    O50       1.20267      .   S
    Zr21   O51       0.63554      .   S
    Zr11   O51       0.63554      .   S
    Zr12   O52       0.63226      .   S
    Zr31   O52       0.63226      .   S
    Zr31   O53       1.13408      .   S
    Zr3    O53       1.13408      .   S
    Zr13   O54       0.63491      .   S
    Zr38   O54       0.63491      .   S
    Zr1    O55       1.22754      .   S
    Zr38   O55       1.22754      .   S
    Zr1    O56       1.16836      .   S
    Zr20   O56       1.16836      .   S
    Zr1    O57       1.17090      .   S
    Zr35   O57       1.17090      .   S
    Zr11   O58       0.64039      .   S
    Zr20   O58       0.64039      .   S
    Zr5    O59       1.10352      .   S
    Zr28   O59       1.10352      .   S
    Zr3    O60       1.15865      .   S
    Zr29   O60       1.15865      .   S
    Zr3    O61       1.16519      .   S
    Zr34   O61       1.16519      .   S
    Zr29   O62       0.63086      .   S
    Zr10   O62       0.63086      .   S
    Zr10   O63       0.64566      .   S
    Zr28   O63       0.64566      .   S
    Zr35   O64       0.64244      .   S
    Zr15   O64       0.64244      .   S
    Zr34   O65       0.63348      .   S
    Zr15   O65       0.63348      .   S
    Zr9    O66       0.63347      .   S
    Zr22   O66       0.63347      .   S
    Zr9    O67       0.64246      .   S
    Zr23   O67       0.64246      .   S
    Zr22   O68       1.16543      .   S
    Zr0    O68       1.16543      .   S
    Zr23   O69       1.17107      .   S
    Zr4    O69       1.17107      .   S
    Zr40   O70       0.64562      .   S
    Zr16   O70       0.64562      .   S
    Zr40   O71       1.10351      .   S
    Zr2    O71       1.10351      .   S
    Zr32   O72       0.64043      .   S
    Zr17   O72       0.64043      .   S
    Zr32   O73       1.16811      .   S
    Zr4    O73       1.16811      .   S
    Zr26   O74       1.22734      .   S
    Zr4    O74       1.22734      .   S
    Zr26   O75       0.63491      .   S
    Zr7    O75       0.63491      .   S
    Zr16   O76       0.63088      .   S
    Zr41   O76       0.63088      .   S
    Zr41   O77       1.15846      .   S
    Zr0    O77       1.15846      .   S
    Zr0    O78       1.13415      .   S
    Zr19   O78       1.13415      .   S
    Zr0    O79       1.14516      .   S
    Zr36   O79       1.14516      .   S
    Zr2    O80       1.09766      .   S
    Zr18   O80       1.09766      .   S
    Zr17   O81       0.63550      .   S
    Zr33   O81       0.63550      .   S
    Zr4    O82       1.20326      .   S
    Zr33   O82       1.20326      .   S
    Zr4    O83       1.15288      .   S
    Zr27   O83       1.15288      .   S
    Zr4    O84       1.16020      .   S
    Zr37   O84       1.16020      .   S
    Zr7    O85       0.64127      .   S
    Zr27   O85       0.64127      .   S
    Zr19   O86       0.63221      .   S
    Zr6    O86       0.63221      .   S
    Zr6    O87       0.64302      .   S
    Zr18   O87       0.64302      .   S
    Zr37   O88       0.64034      .   S
    Zr14   O88       0.64034      .   S
    Zr36   O89       0.63523      .   S
    Zr14   O89       0.63523      .   S
    N90    O91       1.59030      .   S
    Zr6    O91       2.12724      .   S
    N90    O92       2.25242      .   S
    Zr8    O92       2.97966  1_554   S
    N90    O93       1.81218      .   S
    Zr7    O93       2.39365  1_655   S
    N90    O94       1.47296      .   S
    Zr2    O94       2.35211      .   S
    N95    O96       1.67456      .   S
    Zr16   O96       2.22097      .   S
    N95    O97       1.77793      .   S
    Zr17   O97       2.33970  1_545   S
    N95    O98       1.40588      .   S
    Zr2    O98       2.28637      .   S
    N95    O99       2.25504      .   S
    Zr15   O99       2.98295      .   S
    N100   O101      1.48360      .   S
    Zr5    O101      2.36503      .   S
    N100   O102      2.25740      .   S
    Zr14   O102      2.98459  1_556   S
    N100   O103      1.60108      .   S
    Zr12   O103      2.13956      .   S
    N100   O104      1.80873      .   S
    Zr13   O104      2.38786  1_455   S
    N105   O106      1.39668      .   S
    Zr5    O106      2.27492      .   S
    N105   O107      2.24828      .   S
    Zr9    O107      2.97624      .   S
    N105   O108      1.66645      .   S
    Zr10   O108      2.21146      .   S
    N105   O109      1.78242      .   S
    Zr11   O109      2.34629  1_565   S
