# CIF file generated by openbabel 2.4.90, see http://openbabel.sf.net
data_I
_chemical_name_common ''
_cell_length_a 15.375
_cell_length_b 15.377
_cell_length_c 17.986
_cell_angle_alpha 95.482
_cell_angle_beta 96.329
_cell_angle_gamma 94.366
_space_group_name_H-M_alt 'P 1'
_space_group_name_Hall 'P 1'
loop_
    _symmetry_equiv_pos_as_xyz
    x,y,z
loop_
    _atom_site_label
    _atom_site_type_symbol
    _atom_site_fract_x
    _atom_site_fract_y
    _atom_site_fract_z
    _atom_site_occupancy
    H0      H    0.03192   0.29384   0.12379   1.000
    H1      H    0.04319   0.45291   0.12305   1.000
    H2      H    0.94258   0.42138   0.88708   1.000
    H3      H    0.93774   0.26064   0.88839   1.000
    H4      H    0.30028   0.00481   0.12436   1.000
    H5      H    0.45875   0.99424   0.11843   1.000
    H6      H    0.41985   0.01326   0.87956   1.000
    H7      H    0.25994   0.02015   0.88627   1.000
    H8      H    0.03351   0.14938   0.21714   1.000
    H9      H    0.03100   0.15055   0.35611   1.000
    H10     H    0.96856   0.86966   0.32016   1.000
    H11     H    0.97226   0.87991   0.18264   1.000
    H12     H    0.99590   0.70511   0.88065   1.000
    H13     H    0.99046   0.54522   0.88174   1.000
    H14     H    0.01806   0.57824   0.12470   1.000
    H15     H    0.02798   0.73864   0.12174   1.000
    H16     H    0.69293   0.92250   0.87881   1.000
    H17     H    0.53365   0.92896   0.88326   1.000
    H18     H    0.58564   0.00000   0.10680   1.000
    H19     H    0.74512   0.00000   0.10334   1.000
    H20     H    0.96875   0.85120   0.78579   1.000
    H21     H    0.96945   0.85210   0.64686   1.000
    H22     H    0.02436   0.13391   0.68469   1.000
    H23     H    0.02242   0.12169   0.82208   1.000
    H24     H    0.46513   0.62237   0.54757   1.000
    H25     H    0.30369   0.62096   0.55072   1.000
    H26     H    0.34724   0.69459   0.79008   1.000
    H27     H    0.50780   0.69001   0.78630   1.000
    H28     H    0.05965   0.63673   0.79068   1.000
    H29     H    0.21800   0.62437   0.78588   1.000
    H30     H    0.19069   0.69527   0.55841   1.000
    H31     H    0.03040   0.69835   0.56202   1.000
    H32     H    0.86137   0.41127   0.76631   1.000
    H33     H    0.86699   0.25005   0.76743   1.000
    H34     H    0.67405   0.20776   0.57172   1.000
    H35     H    0.67378   0.36869   0.56894   1.000
    H36     H    0.74789   0.92840   0.55639   1.000
    H37     H    0.75104   0.08970   0.55127   1.000
    H38     H    0.79060   0.12769   0.79391   1.000
    H39     H    0.79027   0.96804   0.79778   1.000
    H40     H    0.75533   0.54154   0.85407   1.000
    H41     H    0.76581   0.52644   0.99283   1.000
    H42     H    0.81859   0.80813   0.03208   1.000
    H43     H    0.80627   0.81185   0.89276   1.000
    H44     H    0.83659   0.77749   0.49750   1.000
    H45     H    0.86251   0.78100   0.36315   1.000
    H46     H    0.71317   0.52767   0.31500   1.000
    H47     H    0.69158   0.53608   0.45123   1.000
    H48     H    0.54107   0.37401   0.45400   1.000
    H49     H    0.70238   0.37697   0.45060   1.000
    H50     H    0.65740   0.29991   0.21172   1.000
    H51     H    0.49690   0.30241   0.21642   1.000
    H52     H    0.94352   0.35697   0.20727   1.000
    H53     H    0.78535   0.36891   0.21341   1.000
    H54     H    0.81707   0.30703   0.44351   1.000
    H55     H    0.97710   0.30460   0.43842   1.000
    H56     H    0.15119   0.58338   0.22817   1.000
    H57     H    0.14192   0.74376   0.22791   1.000
    H58     H    0.32232   0.78776   0.43190   1.000
    H59     H    0.32571   0.62712   0.43357   1.000
    H60     H    0.25124   0.06504   0.44700   1.000
    H61     H    0.24774   0.90358   0.45015   1.000
    H62     H    0.20805   0.86947   0.20736   1.000
    H63     H    0.20757   0.02946   0.20583   1.000
    H64     H    0.25635   0.45095   0.14662   1.000
    H65     H    0.23920   0.46828   0.00829   1.000
    H66     H    0.17784   0.18749   0.96690   1.000
    H67     H    0.19834   0.18173   0.10610   1.000
    H68     H    0.16241   0.22154   0.50295   1.000
    H69     H    0.13146   0.21882   0.63597   1.000
    H70     H    0.28579   0.46930   0.68744   1.000
    H71     H    0.31183   0.46032   0.55236   1.000
    C72     C    0.98510   0.26634   0.00000   1.000
    C73     C    0.01241   0.32195   0.07185   1.000
    C74     C    0.01796   0.41242   0.07100   1.000
    C75     C    0.99483   0.45131   0.00000   1.000
    C76     C    0.96398   0.39445   0.93921   1.000
    C77     C    0.95997   0.30383   0.93958   1.000
    C78     C    0.98810   0.16918   0.00000   1.000
    C79     C    0.26959   0.01341   0.00560   1.000
    C80     C    0.32675   0.00680   0.07084   1.000
    C81     C    0.41610   0.00157   0.06724   1.000
    C82     C    0.45184   0.00316   0.99850   1.000
    C83     C    0.39397   0.01028   0.93340   1.000
    C84     C    0.30446   0.01511   0.93687   1.000
    C85     C    0.17283   0.01668   0.00887   1.000
    C86     C    0.01872   0.08907   0.24228   1.000
    C87     C    0.01724   0.08946   0.31940   1.000
    C88     C    0.99935   0.00985   0.34910   1.000
    C89     C    0.98252   0.93281   0.29961   1.000
    C90     C    0.98493   0.93783   0.22338   1.000
    C91     C    0.99838   0.00612   0.43052   1.000
    C92     C    0.01345   0.73257   0.00121   1.000
    C93     C    0.00000   0.67680   0.93399   1.000
    N94     N    0.02966   0.07853   0.47745   1.000
    N95     N    0.96588   0.92998   0.45332   1.000
    N96     N    0.99508   0.98656   0.80863   1.000
    N97     N    0.96531   0.92559   0.52643   1.000
    C98     C    0.99850   0.58632   0.93523   1.000
    C99     C    0.00317   0.54773   0.00340   1.000
    C100    C    0.01514   0.60486   0.07058   1.000
    C101    C    0.02067   0.69534   0.06951   1.000
    C102    C    0.72968   0.98683   0.99119   1.000
    C103    C    0.66929   0.95315   0.92902   1.000
    C104    C    0.57949   0.95781   0.93144   1.000
    C105    C    0.54707   0.99753   0.99544   1.000
    C106    C    0.60847   0.00000   0.05700   1.000
    C107    C    0.69796   0.00000   0.05539   1.000
    C108    C    0.82679   0.98305   0.99049   1.000
    C109    C    0.98144   0.91222   0.76108   1.000
    C110    C    0.98199   0.91296   0.68392   1.000
    C111    C    0.99726   0.99337   0.65480   1.000
    C112    C    0.01248   0.07015   0.70477   1.000
    C113    C    0.01108   0.06399   0.78099   1.000
    C114    C    0.99723   0.99780   0.57342   1.000
    C115    C    0.49650   0.65624   0.66679   1.000
    C116    C    0.43830   0.63743   0.60046   1.000
    C117    C    0.34812   0.63768   0.60251   1.000
    C118    C    0.31299   0.65802   0.67054   1.000
    C119    C    0.37215   0.67668   0.73678   1.000
    C120    C    0.46225   0.67517   0.73500   1.000
    C121    C    0.59391   0.65802   0.66490   1.000
    C122    C    0.03470   0.66928   0.67699   1.000
    C123    C    0.08874   0.64923   0.73987   1.000
    C124    C    0.17820   0.64368   0.73724   1.000
    C125    C    0.21731   0.66069   0.67231   1.000
    C126    C    0.16244   0.68084   0.60934   1.000
    C127    C    0.07253   0.68388   0.61128   1.000
    C128    C    0.93802   0.67404   0.67900   1.000
    C129    C    0.76779   0.40009   0.66723   1.000
    C130    C    0.82120   0.36584   0.72361   1.000
    C131    C    0.82348   0.27569   0.72434   1.000
    C132    C    0.77097   0.21675   0.66973   1.000
    C133    C    0.71726   0.25180   0.61350   1.000
    C134    C    0.71630   0.34199   0.61197   1.000
    C135    C    0.76544   0.49722   0.66646   1.000
    C136    C    0.76809   0.93767   0.67713   1.000
    C137    C    0.75717   0.97303   0.60796   1.000
    C138    C    0.75858   0.06321   0.60553   1.000
    C139    C    0.77090   0.12102   0.67218   1.000
    C140    C    0.78212   0.08486   0.74124   1.000
    C141    C    0.78066   0.99461   0.74378   1.000
    C142    C    0.76822   0.84047   0.67905   1.000
    C143    C    0.76799   0.59847   0.89596   1.000
    C144    C    0.77381   0.59062   0.97248   1.000
    C145    C    0.79262   0.66654   0.02329   1.000
    C146    C    0.80320   0.74777   0.99450   1.000
    C147    C    0.79639   0.75008   0.91700   1.000
    C148    C    0.80268   0.66009   0.10491   1.000
    C149    C    0.80204   0.65370   0.24780   1.000
    C150    C    0.80997   0.72416   0.45487   1.000
    C151    C    0.82431   0.72545   0.38012   1.000
    C152    C    0.78936   0.65438   0.32786   1.000
    C153    C    0.74090   0.58450   0.35338   1.000
    C154    C    0.72882   0.58879   0.42905   1.000
    C155    C    0.50892   0.33817   0.33572   1.000
    C156    C    0.56757   0.35848   0.40160   1.000
    C157    C    0.65776   0.35919   0.39907   1.000
    C158    C    0.69249   0.33849   0.33089   1.000
    C159    C    0.63284   0.31814   0.26511   1.000
    C160    C    0.54275   0.31856   0.26700   1.000
    C161    C    0.41151   0.33598   0.33794   1.000
    C162    C    0.97066   0.32916   0.32220   1.000
    C163    C    0.91551   0.34656   0.25902   1.000
    C164    C    0.82610   0.35176   0.26243   1.000
    C165    C    0.78819   0.33695   0.32842   1.000
    C166    C    0.84426   0.31965   0.39170   1.000
    C167    C    0.93405   0.31700   0.38898   1.000
    C168    C    0.06721   0.32396   0.31929   1.000
    C169    C    0.23793   0.59500   0.33158   1.000
    C170    C    0.18746   0.62885   0.27313   1.000
    C171    C    0.18311   0.71886   0.27298   1.000
    C172    C    0.23070   0.77821   0.33030   1.000
    C173    C    0.28225   0.74351   0.38816   1.000
    C174    C    0.28508   0.65346   0.38910   1.000
    C175    C    0.24144   0.49800   0.33260   1.000
    C176    C    0.23095   0.05774   0.32637   1.000
    C177    C    0.24166   0.02123   0.39499   1.000
    C178    C    0.24024   0.93085   0.39625   1.000
    C179    C    0.22860   0.87395   0.32902   1.000
    C180    C    0.21660   0.91134   0.26056   1.000
    C181    C    0.21763   0.00169   0.25924   1.000
    C182    C    0.23299   0.15513   0.32490   1.000
    C183    C    0.24050   0.39469   0.10435   1.000
    C184    C    0.23077   0.40379   0.02800   1.000
    C185    C    0.20698   0.32896   0.97667   1.000
    C186    C    0.19657   0.24728   0.00463   1.000
    C187    C    0.20782   0.24368   0.08210   1.000
    C188    C    0.19262   0.33723   0.89543   1.000
    C189    C    0.19190   0.34508   0.75263   1.000
    C190    C    0.18886   0.27449   0.54598   1.000
    C191    C    0.17181   0.27361   0.62013   1.000
    C192    C    0.20682   0.34405   0.67304   1.000
    C193    C    0.25788   0.41294   0.64863   1.000
    C194    C    0.27246   0.40832   0.57350   1.000
    N195    N    0.00353   0.01443   0.19515   1.000
    N196    N    0.02912   0.07413   0.55061   1.000
    N197    N    0.77969   0.67669   0.86840   1.000
    N198    N    0.77936   0.58178   0.12890   1.000
    N199    N    0.77910   0.57830   0.20216   1.000
    N200    N    0.84126   0.72653   0.22478   1.000
    N201    N    0.84172   0.72999   0.15143   1.000
    N202    N    0.76251   0.65721   0.47902   1.000
    N203    N    0.22827   0.31617   0.13137   1.000
    N204    N    0.21574   0.41586   0.87187   1.000
    N205    N    0.21525   0.42013   0.79867   1.000
    N206    N    0.14993   0.27350   0.77527   1.000
    N207    N    0.14994   0.26933   0.84866   1.000
    N208    N    0.23884   0.34043   0.52291   1.000
    O209    O    0.01132   0.14121   0.06864   1.000
    O210    O    0.96981   0.12215   0.94275   1.000
    O211    O    0.14505   0.01481   0.07311   1.000
    O212    O    0.12495   0.02182   0.94710   1.000
    O213    O    0.85519   0.96294   0.92739   1.000
    O214    O    0.87431   0.00000   0.05344   1.000
    O215    O    0.64167   0.66247   0.72790   1.000
    O216    O    0.62118   0.65565   0.60038   1.000
    O217    O    0.91175   0.68906   0.74399   1.000
    O218    O    0.88970   0.66346   0.61653   1.000
    O219    O    0.78487   0.54377   0.72953   1.000
    O220    O    0.74460   0.52554   0.60325   1.000
    O221    O    0.77410   0.81124   0.74333   1.000
    O222    O    0.76364   0.79432   0.61578   1.000
    O223    O    0.36371   0.32920   0.27476   1.000
    O224    O    0.38433   0.34052   0.40254   1.000
    O225    O    0.09353   0.31085   0.25453   1.000
    O226    O    0.11545   0.33197   0.38215   1.000
    O227    O    0.22556   0.45130   0.26946   1.000
    O228    O    0.25941   0.47017   0.39659   1.000
    O229    O    0.22588   0.18411   0.26057   1.000
    O230    O    0.24092   0.20145   0.38832   1.000
loop_
    _geom_bond_atom_site_label_1
    _geom_bond_atom_site_label_2
    _geom_bond_distance
    _geom_bond_site_symmetry_2
    _ccdc_geom_bond_type
    C72    C78       1.49818      .   S
    C72    C73       1.48060  1_655   S
    C72    C77       1.31290  1_554   S
    C75    C99       1.47321  1_655   S
    C75    C74       1.48088  1_655   S
    C75    C76       1.35086  1_554   S
    C78    O209      1.36542  1_655   S
    C78    O210      1.19386  1_554   S
    C92    C101      1.40116      .   S
    C92    C93       1.39992  1_554   S
    C99    C100      1.41033      .   S
    C99    C98       1.40952  1_454   S
    C186   C187      1.39196      .   S
    C186   H66       1.08909  1_554   S
    C186   C185      1.40135  1_554   S
    C79    C85       1.49984      .   S
    C79    C80       1.40307      .   S
    C79    C84       1.40225  1_554   S
    H65    C184      1.08786      .   S
    C85    O211      1.27731      .   S
    C85    O212      1.27585  1_554   S
    C145   C148      1.47274      .   S
    C145   C144      1.40292  1_554   S
    C145   C146      1.40205  1_554   S
    C184   C183      1.38649      .   S
    C184   C185      1.40312  1_554   S
    H42    C146      1.08899  1_554   S
    O214   C108      1.27123  1_544   S
    C107   C106      1.37943      .   S
    C107   H19       1.06376      .   S
    C107   C102      1.30639  1_544   S
    C106   H18       0.99740      .   S
    C106   C105      1.36916  1_544   S
    C81    C80       1.39044      .   S
    C81    H5        1.09008  1_545   S
    C81    C82       1.40878  1_554   S
    C101   C100      1.38952      .   S
    C101   H15       1.08823      .   S
    C100   H14       1.08921      .   S
    C80    H4        1.08779      .   S
    C74    C73       1.38894      .   S
    C74    H1        1.08916      .   S
    C73    H0        1.08839      .   S
    C187   H67       1.08914      .   S
    C187   N203      1.35027      .   S
    C183   N203      1.35164      .   S
    C183   H64       1.08959      .   S
    C148   N198      1.35368      .   S
    C148   N201      1.35461      .   S
    N198   N199      1.32426      .   S
    N201   N200      1.32618      .   S
    H11    C90       1.08872      .   S
    N195   C90       1.34988  1_445   S
    N195   C86       1.34913      .   S
    N199   C149      1.35442      .   S
    H63    C181      1.08842      .   S
    H52    C163      1.08803      .   S
    H62    C180      1.09040      .   S
    H50    C159      1.08993      .   S
    H53    C164      1.08967      .   S
    H51    C160      1.08396      .   S
    H8     C86       1.08931      .   S
    C90    C89       1.38497      .   S
    N200   C149      1.35288      .   S
    H57    C171      1.08996      .   S
    H56    C170      1.08943      .   S
    C86    C87       1.38924      .   S
    C149   C152      1.47342      .   S
    O225   C168      1.27774      .   S
    C163   C164      1.39072      .   S
    C163   C162      1.40073      .   S
    C181   C180      1.39079  1_545   S
    C181   C176      1.40081      .   S
    C180   C179      1.40782      .   S
    O229   C182      1.27564      .   S
    C164   C165      1.40870      .   S
    C159   C160      1.38979      .   S
    C159   C158      1.40897      .   S
    C160   C155      1.40839      .   S
    O227   C175      1.27332      .   S
    C171   C170      1.39096      .   S
    C171   C172      1.40833      .   S
    C170   C169      1.40158      .   S
    O223   C161      1.27433      .   S
    C89    H10       1.08623      .   S
    C89    C88       1.40136  1_565   S
    H46    C153      1.08855      .   S
    C168   C162      1.49907  1_455   S
    C168   O226      1.27210      .   S
    C87    C88       1.40199  1_455   S
    C87    H9        1.08794      .   S
    C162   C167      1.40362      .   S
    C182   C176      1.49834      .   S
    C182   O230      1.27445      .   S
    C176   C177      1.40260      .   S
    C152   C153      1.40292      .   S
    C152   C151      1.40340      .   S
    C165   C158      1.47880      .   S
    C165   C166      1.40915      .   S
    C179   C172      1.47740      .   S
    C179   C178      1.40923      .   S
    C172   C173      1.40872      .   S
    C158   C157      1.40928      .   S
    C169   C175      1.49849      .   S
    C169   C174      1.40058      .   S
    C175   O228      1.27521      .   S
    C155   C161      1.50048      .   S
    C155   C156      1.40200      .   S
    C161   O224      1.27493      .   S
    C88    C91       1.47266      .   S
    C153   C154      1.38982      .   S
    H45    C151      1.08664      .   S
    C151   C150      1.38790      .   S
    C173   C174      1.39027      .   S
    C173   H58       1.09019      .   S
    C167   C166      1.39042      .   S
    C167   H55       1.08948      .   S
    C174   H59       1.08829      .   S
    C166   H54       1.09035      .   S
    C177   C178      1.39059  1_545   S
    C177   H60       1.08846      .   S
    C178   H61       1.09061      .   S
    C157   C156      1.39158      .   S
    C157   H49       1.08960      .   S
    C156   H48       1.08060      .   S
    C154   H47       1.08869      .   S
    C154   N202      1.34787      .   S
    C91    N95       1.35522  1_545   S
    C91    N94       1.35380  1_655   S
    N95    N97       1.32408      .   S
    C150   N202      1.34981      .   S
    C150   H44       1.08973      .   S
    N94    N196      1.32493      .   S
    H68    C190      1.08948      .   S
    N208   C190      1.35020      .   S
    N208   C194      1.34818      .   S
    N97    C114      1.35439      .   S
    C190   C191      1.38832      .   S
    H24    C116      1.08979      .   S
    N196   C114      1.35469  1_445   S
    H25    C117      1.08976      .   S
    H37    C138      1.09086      .   S
    H71    C194      1.08875      .   S
    H36    C137      1.08900      .   S
    H30    C126      1.09032      .   S
    H31    C127      1.08955      .   S
    H35    C134      1.08854      .   S
    H34    C133      1.09035      .   S
    C114   C111      1.47172      .   S
    C194   C193      1.39002      .   S
    O216   C121      1.27488      .   S
    C116   C117      1.39133      .   S
    C116   C115      1.40246      .   S
    C117   C118      1.40891      .   S
    O220   C135      1.27294      .   S
    C138   C137      1.39023  1_545   S
    C138   C139      1.40846      .   S
    C137   C136      1.40309      .   S
    C126   C127      1.39090      .   S
    C126   C125      1.40946      .   S
    C127   C122      1.40274      .   S
    C134   C133      1.39084      .   S
    C134   C129      1.40074      .   S
    C133   C132      1.40823      .   S
    O222   C142      1.27431      .   S
    O218   C128      1.26632      .   S
    C191   H69       1.08690      .   S
    C191   C192      1.40345      .   S
    H21    C110      1.08738      .   S
    C193   C192      1.40343      .   S
    C193   H70       1.08818      .   S
    C111   C110      1.40176      .   S
    C111   C112      1.40188  1_665   S
    C121   C115      1.50011      .   S
    C121   O215      1.27356      .   S
    C135   C129      1.49812      .   S
    C135   O219      1.27513      .   S
    C115   C120      1.40168      .   S
    C129   C130      1.40146      .   S
    C132   C139      1.47677      .   S
    C132   C131      1.40781      .   S
    C118   C125      1.47862      .   S
    C118   C119      1.40890      .   S
    C139   C140      1.40752      .   S
    C125   C124      1.40816      .   S
    C192   C189      1.47334      .   S
    C122   C128      1.49806  1_455   S
    C122   C123      1.40102      .   S
    C136   C142      1.49854      .   S
    C136   C141      1.40129      .   S
    C128   O217      1.28436      .   S
    C142   O221      1.27643      .   S
    C110   C109      1.38989      .   S
    H22    C112      1.08634      .   S
    C112   C113      1.38555      .   S
    C130   C131      1.39062      .   S
    C130   H32       1.08924      .   S
    C131   H33       1.08989      .   S
    C120   C119      1.39109      .   S
    C120   H27       1.08944      .   S
    C119   H26       1.09000      .   S
    C124   C123      1.39030      .   S
    C124   H29       1.08964      .   S
    C123   H28       1.08752      .   S
    C140   C141      1.39143  1_545   S
    C140   H38       1.09029      .   S
    C141   H39       1.08874      .   S
    C189   N206      1.35254      .   S
    C189   N205      1.35469      .   S
    C109   H20       1.08939      .   S
    C109   N96       1.34880      .   S
    N206   N207      1.32765      .   S
    C113   N96       1.34941  1_445   S
    C113   H23       1.08928      .   S
    N205   N204      1.32369      .   S
    N207   C188      1.35449      .   S
    H40    C143      1.08972      .   S
    N197   C143      1.35118      .   S
    N197   C147      1.34956      .   S
    N204   C188      1.35415      .   S
    H16    C103      1.08946      .   S
    H6     C83       1.09030      .   S
    H12    C93       1.08836  1_655   S
    H13    C98       1.08910      .   S
    H17    C104      1.09030      .   S
    H7     C84       1.08945      .   S
    H2     C76       1.08891      .   S
    H3     C77       1.08856      .   S
    H43    C147      1.08949      .   S
    C188   C185      1.47261      .   S
    C143   C144      1.38670      .   S
    C147   C146      1.39035      .   S
    O213   C108      1.27949      .   S
    C103   C104      1.39321      .   S
    C103   C102      1.40284      .   S
    C104   C105      1.40888      .   S
    C83    C84       1.39179      .   S
    C83    C82       1.40867      .   S
    C93    C98       1.39202  1_455   S
    C76    C77       1.39078      .   S
    C144   H41       1.08790      .   S
    C108   C102      1.49991      .   S
    C105   C82       1.48000  1_565   S
