# CIF file generated by openbabel 2.4.90, see http://openbabel.sf.net
data_I
_chemical_name_common ''
_cell_length_a 15.375
_cell_length_b 15.377
_cell_length_c 17.986
_cell_angle_alpha 95.482
_cell_angle_beta 96.329
_cell_angle_gamma 94.366
_space_group_name_H-M_alt 'P 1'
_space_group_name_Hall 'P 1'
loop_
    _symmetry_equiv_pos_as_xyz
    x,y,z
loop_
    _atom_site_label
    _atom_site_type_symbol
    _atom_site_fract_x
    _atom_site_fract_y
    _atom_site_fract_z
    _atom_site_occupancy
    C0      C    0.01084   0.01061   0.08136   1.000
    C1      C    0.98922   0.98871   0.92210   1.000
    C2      C    0.77746   0.67849   0.75320   1.000
    C3      C    0.75307   0.65904   0.59326   1.000
    C4      C    0.22911   0.31531   0.24715   1.000
    C5      C    0.25180   0.33730   0.40903   1.000
    C6      C    0.03192   0.29384   0.12379   1.000
    C7      C    0.04319   0.45291   0.12305   1.000
    C8      C    0.94258   0.42138   0.88708   1.000
    C9      C    0.93774   0.26064   0.88839   1.000
    C10     C    0.30028   0.00481   0.12436   1.000
    C11     C    0.45875   0.99424   0.11843   1.000
    C12     C    0.41985   0.01326   0.87956   1.000
    C13     C    0.25994   0.02015   0.88627   1.000
    C14     C    0.03351   0.14938   0.21714   1.000
    C15     C    0.03100   0.15055   0.35611   1.000
    C16     C    0.96856   0.86966   0.32016   1.000
    C17     C    0.97226   0.87991   0.18264   1.000
    C18     C    0.99590   0.70511   0.88065   1.000
    C19     C    0.99046   0.54522   0.88174   1.000
    C20     C    0.01806   0.57824   0.12470   1.000
    C21     C    0.02798   0.73864   0.12174   1.000
    C22     C    0.69293   0.92250   0.87881   1.000
    C23     C    0.53365   0.92896   0.88326   1.000
    C24     C    0.58564   0.00000   0.10680   1.000
    C25     C    0.74512   0.00000   0.10334   1.000
    C26     C    0.96875   0.85120   0.78579   1.000
    C27     C    0.96945   0.85210   0.64686   1.000
    C28     C    0.02436   0.13391   0.68469   1.000
    C29     C    0.02242   0.12169   0.82208   1.000
    C30     C    0.46513   0.62237   0.54757   1.000
    C31     C    0.30369   0.62096   0.55072   1.000
    C32     C    0.34724   0.69459   0.79008   1.000
    C33     C    0.50780   0.69001   0.78630   1.000
    C34     C    0.05965   0.63673   0.79068   1.000
    C35     C    0.21800   0.62437   0.78588   1.000
    C36     C    0.19069   0.69527   0.55841   1.000
    C37     C    0.03040   0.69835   0.56202   1.000
    C38     C    0.86137   0.41127   0.76631   1.000
    C39     C    0.86699   0.25005   0.76743   1.000
    C40     C    0.67405   0.20776   0.57172   1.000
    C41     C    0.67378   0.36869   0.56894   1.000
    C42     C    0.74789   0.92840   0.55639   1.000
    C43     C    0.75104   0.08970   0.55127   1.000
    C44     C    0.79060   0.12769   0.79391   1.000
    C45     C    0.79027   0.96804   0.79778   1.000
    C46     C    0.75533   0.54154   0.85407   1.000
    C47     C    0.76581   0.52644   0.99283   1.000
    C48     C    0.81859   0.80813   0.03208   1.000
    C49     C    0.80627   0.81185   0.89276   1.000
    C50     C    0.83659   0.77749   0.49750   1.000
    C51     C    0.86251   0.78100   0.36315   1.000
    C52     C    0.71317   0.52767   0.31500   1.000
    C53     C    0.69158   0.53608   0.45123   1.000
    C54     C    0.54107   0.37401   0.45400   1.000
    C55     C    0.70238   0.37697   0.45060   1.000
    C56     C    0.65740   0.29991   0.21172   1.000
    C57     C    0.49690   0.30241   0.21642   1.000
    C58     C    0.94352   0.35697   0.20727   1.000
    C59     C    0.78535   0.36891   0.21341   1.000
    C60     C    0.81707   0.30703   0.44351   1.000
    C61     C    0.97710   0.30460   0.43842   1.000
    C62     C    0.15119   0.58338   0.22817   1.000
    C63     C    0.14192   0.74376   0.22791   1.000
    C64     C    0.32232   0.78776   0.43190   1.000
    C65     C    0.32571   0.62712   0.43357   1.000
    C66     C    0.25124   0.06504   0.44700   1.000
    C67     C    0.24774   0.90358   0.45015   1.000
    C68     C    0.20805   0.86947   0.20736   1.000
    C69     C    0.20757   0.02946   0.20583   1.000
    C70     C    0.25635   0.45095   0.14662   1.000
    C71     C    0.23920   0.46828   0.00829   1.000
    C72     C    0.17784   0.18749   0.96690   1.000
    C73     C    0.19834   0.18173   0.10610   1.000
    C74     C    0.16241   0.22154   0.50295   1.000
    C75     C    0.13146   0.21882   0.63597   1.000
    C76     C    0.28579   0.46930   0.68744   1.000
    C77     C    0.31183   0.46032   0.55236   1.000
    C78     C    0.98510   0.26634   0.00000   1.000
    C79     C    0.01241   0.32195   0.07185   1.000
    C80     C    0.01796   0.41242   0.07100   1.000
    C81     C    0.99483   0.45131   0.00000   1.000
    C82     C    0.96398   0.39445   0.93921   1.000
    C83     C    0.95997   0.30383   0.93958   1.000
    C84     C    0.98810   0.16918   0.00000   1.000
    C85     C    0.26959   0.01341   0.00560   1.000
    C86     C    0.32675   0.00680   0.07084   1.000
    C87     C    0.41610   0.00157   0.06724   1.000
    C88     C    0.45184   0.00316   0.99850   1.000
    C89     C    0.39397   0.01028   0.93340   1.000
    C90     C    0.30446   0.01511   0.93687   1.000
    C91     C    0.17283   0.01668   0.00887   1.000
    C92     C    0.01872   0.08907   0.24228   1.000
    C93     C    0.01724   0.08946   0.31940   1.000
    C94     C    0.99935   0.00985   0.34910   1.000
    C95     C    0.98252   0.93281   0.29961   1.000
    C96     C    0.98493   0.93783   0.22338   1.000
    C97     C    0.99838   0.00612   0.43052   1.000
    C98     C    0.01345   0.73257   0.00121   1.000
    C99     C    0.00000   0.67680   0.93399   1.000
    C100    C    0.99850   0.58632   0.93523   1.000
    C101    C    0.00317   0.54773   0.00340   1.000
    C102    C    0.01514   0.60486   0.07058   1.000
    C103    C    0.02067   0.69534   0.06951   1.000
    C104    C    0.01117   0.82966   0.60000   1.000
    C105    C    0.72968   0.98683   0.99119   1.000
    C106    C    0.66929   0.95315   0.92902   1.000
    C107    C    0.57949   0.95781   0.93144   1.000
    C108    C    0.54707   0.99753   0.99544   1.000
    C109    C    0.60847   0.00000   0.05700   1.000
    C110    C    0.69796   0.00000   0.05539   1.000
    C111    C    0.82679   0.98305   0.99049   1.000
    C112    C    0.98144   0.91222   0.76108   1.000
    C113    C    0.98199   0.91296   0.68392   1.000
    C114    C    0.99726   0.99337   0.65480   1.000
    C115    C    0.01248   0.07015   0.70477   1.000
    C116    C    0.01108   0.06399   0.78099   1.000
    C117    C    0.99723   0.99780   0.57342   1.000
    C118    C    0.49650   0.65624   0.66679   1.000
    C119    C    0.43830   0.63743   0.60046   1.000
    C120    C    0.34812   0.63768   0.60251   1.000
    C121    C    0.31299   0.65802   0.67054   1.000
    C122    C    0.37215   0.67668   0.73678   1.000
    C123    C    0.46225   0.67517   0.73500   1.000
    C124    C    0.59391   0.65802   0.66490   1.000
    C125    C    0.03470   0.66928   0.67699   1.000
    C126    C    0.08874   0.64923   0.73987   1.000
    C127    C    0.17820   0.64368   0.73724   1.000
    C128    C    0.21731   0.66069   0.67231   1.000
    C129    C    0.16244   0.68084   0.60934   1.000
    C130    C    0.07253   0.68388   0.61128   1.000
    C131    C    0.93802   0.67404   0.67900   1.000
    C132    C    0.76779   0.40009   0.66723   1.000
    C133    C    0.82120   0.36584   0.72361   1.000
    C134    C    0.82348   0.27569   0.72434   1.000
    C135    C    0.77097   0.21675   0.66973   1.000
    C136    C    0.71726   0.25180   0.61350   1.000
    C137    C    0.71630   0.34199   0.61197   1.000
    C138    C    0.76544   0.49722   0.66646   1.000
    C139    C    0.76809   0.93767   0.67713   1.000
    C140    C    0.75717   0.97303   0.60796   1.000
    C141    C    0.75858   0.06321   0.60553   1.000
    C142    C    0.77090   0.12102   0.67218   1.000
    C143    C    0.78212   0.08486   0.74124   1.000
    C144    C    0.78066   0.99461   0.74378   1.000
    C145    C    0.76822   0.84047   0.67905   1.000
    C146    C    0.76799   0.59847   0.89596   1.000
    C147    C    0.77381   0.59062   0.97248   1.000
    C148    C    0.79262   0.66654   0.02329   1.000
    C149    C    0.80320   0.74777   0.99450   1.000
    C150    C    0.79639   0.75008   0.91700   1.000
    C151    C    0.80268   0.66009   0.10491   1.000
    C152    C    0.80204   0.65370   0.24780   1.000
    C153    C    0.80997   0.72416   0.45487   1.000
    C154    C    0.82431   0.72545   0.38012   1.000
    C155    C    0.78936   0.65438   0.32786   1.000
    C156    C    0.74090   0.58450   0.35338   1.000
    C157    C    0.72882   0.58879   0.42905   1.000
    C158    C    0.50892   0.33817   0.33572   1.000
    C159    C    0.56757   0.35848   0.40160   1.000
    C160    C    0.65776   0.35919   0.39907   1.000
    C161    C    0.69249   0.33849   0.33089   1.000
    C162    C    0.63284   0.31814   0.26511   1.000
    C163    C    0.54275   0.31856   0.26700   1.000
    C164    C    0.41151   0.33598   0.33794   1.000
    C165    C    0.97066   0.32916   0.32220   1.000
    C166    C    0.91551   0.34656   0.25902   1.000
    C167    C    0.82610   0.35176   0.26243   1.000
    C168    C    0.78819   0.33695   0.32842   1.000
    C169    C    0.84426   0.31965   0.39170   1.000
    C170    C    0.93405   0.31700   0.38898   1.000
    C171    C    0.06721   0.32396   0.31929   1.000
    C172    C    0.23793   0.59500   0.33158   1.000
    C173    C    0.18746   0.62885   0.27313   1.000
    C174    C    0.18311   0.71886   0.27298   1.000
    C175    C    0.23070   0.77821   0.33030   1.000
    C176    C    0.28225   0.74351   0.38816   1.000
    C177    C    0.28508   0.65346   0.38910   1.000
    C178    C    0.24144   0.49800   0.33260   1.000
    C179    C    0.23095   0.05774   0.32637   1.000
    C180    C    0.24166   0.02123   0.39499   1.000
    C181    C    0.24024   0.93085   0.39625   1.000
    C182    C    0.22860   0.87395   0.32902   1.000
    C183    C    0.21660   0.91134   0.26056   1.000
    C184    C    0.21763   0.00169   0.25924   1.000
    C185    C    0.23299   0.15513   0.32490   1.000
    C186    C    0.24050   0.39469   0.10435   1.000
    C187    C    0.23077   0.40379   0.02800   1.000
    C188    C    0.20698   0.32896   0.97667   1.000
    C189    C    0.19657   0.24728   0.00463   1.000
    C190    C    0.20782   0.24368   0.08210   1.000
    C191    C    0.19262   0.33723   0.89543   1.000
    C192    C    0.19190   0.34508   0.75263   1.000
    C193    C    0.18886   0.27449   0.54598   1.000
    C194    C    0.17181   0.27361   0.62013   1.000
    C195    C    0.20682   0.34405   0.67304   1.000
    C196    C    0.25788   0.41294   0.64863   1.000
    C197    C    0.27246   0.40832   0.57350   1.000
    C198    C    0.00353   0.01443   0.19515   1.000
    C199    C    0.02966   0.07853   0.47745   1.000
    C200    C    0.96588   0.92998   0.45332   1.000
    C201    C    0.99508   0.98656   0.80863   1.000
    C202    C    0.96531   0.92559   0.52643   1.000
    C203    C    0.02912   0.07413   0.55061   1.000
    C204    C    0.77969   0.67669   0.86840   1.000
    C205    C    0.77936   0.58178   0.12890   1.000
    C206    C    0.77910   0.57830   0.20216   1.000
    C207    C    0.84126   0.72653   0.22478   1.000
    C208    C    0.84172   0.72999   0.15143   1.000
    C209    C    0.76251   0.65721   0.47902   1.000
    C210    C    0.22827   0.31617   0.13137   1.000
    C211    C    0.21574   0.41586   0.87187   1.000
    C212    C    0.21525   0.42013   0.79867   1.000
    C213    C    0.14993   0.27350   0.77527   1.000
    C214    C    0.14994   0.26933   0.84866   1.000
    C215    C    0.23884   0.34043   0.52291   1.000
    C216    C    0.01132   0.14121   0.06864   1.000
    C217    C    0.96981   0.12215   0.94275   1.000
    C218    C    0.14505   0.01481   0.07311   1.000
    C219    C    0.12495   0.02182   0.94710   1.000
    C220    C    0.00000   0.85957   0.93629   1.000
    C221    C    0.01056   0.87480   0.06318   1.000
    C222    C    0.85519   0.96294   0.92739   1.000
    C223    C    0.87431   0.00000   0.05344   1.000
    C224    C    0.64167   0.66247   0.72790   1.000
    C225    C    0.62118   0.65565   0.60038   1.000
    C226    C    0.91175   0.68906   0.74399   1.000
    C227    C    0.88970   0.66346   0.61653   1.000
    C228    C    0.78487   0.54377   0.72953   1.000
    C229    C    0.74460   0.52554   0.60325   1.000
    C230    C    0.77410   0.81124   0.74333   1.000
    C231    C    0.76364   0.79432   0.61578   1.000
    C232    C    0.36371   0.32920   0.27476   1.000
    C233    C    0.38433   0.34052   0.40254   1.000
    C234    C    0.09353   0.31085   0.25453   1.000
    C235    C    0.11545   0.33197   0.38215   1.000
    C236    C    0.22556   0.45130   0.26946   1.000
    C237    C    0.25941   0.47017   0.39659   1.000
    C238    C    0.22588   0.18411   0.26057   1.000
    C239    C    0.24092   0.20145   0.38832   1.000
    O240    O    0.98660   0.21776   0.00000   1.000
    O241    O    0.99875   0.29415   0.03593   1.000
    O242    O    0.97253   0.28509   0.96979   1.000
    O243    O    0.99900   0.49952   0.00170   1.000
    O244    O    0.00639   0.43187   0.03550   1.000
    O245    O    0.97941   0.42288   0.96961   1.000
    O246    O    0.99971   0.15520   0.03432   1.000
    O247    O    0.97896   0.14567   0.97138   1.000
    O248    O    0.01706   0.71395   0.03536   1.000
    O249    O    0.00672   0.70469   0.96760   1.000
    O250    O    0.00916   0.57629   0.03699   1.000
    O251    O    0.00084   0.56703   0.96932   1.000
    O252    O    0.20220   0.24548   0.04337   1.000
    O253    O    0.18721   0.21738   0.98577   1.000
    O254    O    0.20178   0.28812   0.99065   1.000
    O255    O    0.22121   0.01505   0.00724   1.000
    O256    O    0.29817   0.01011   0.03822   1.000
    O257    O    0.28703   0.01426   0.97124   1.000
    O258    O    0.23499   0.43603   0.01815   1.000
    O259    O    0.15894   0.01575   0.04099   1.000
    O260    O    0.14889   0.01925   0.97799   1.000
    O261    O    0.79765   0.66331   0.06410   1.000
    O262    O    0.78322   0.62858   0.99789   1.000
    O263    O    0.79791   0.70715   0.00890   1.000
    O264    O    0.23564   0.39924   0.06618   1.000
    O265    O    0.21888   0.36637   0.00234   1.000
    O266    O    0.81089   0.77795   0.01329   1.000
    O267    O    0.94258   0.00530   0.06740   1.000
    O268    O    0.85055   0.99152   0.02197   1.000
    O269    O    0.65322   0.00000   0.05620   1.000
    O270    O    0.72154   0.00000   0.07937   1.000
    O271    O    0.71382   0.99341   0.02329   1.000
    O272    O    0.59706   0.00000   0.08190   1.000
    O273    O    0.57777   0.99876   0.02622   1.000
    O274    O    0.01070   0.94270   0.07227   1.000
    O275    O    0.37143   0.00419   0.06904   1.000
    O276    O    0.43742   0.99790   0.09284   1.000
    O277    O    0.43397   0.00237   0.03287   1.000
    O278    O    0.01108   0.07591   0.07500   1.000
    O279    O    0.01790   0.65010   0.07005   1.000
    O280    O    0.02432   0.71699   0.09563   1.000
    O281    O    0.01660   0.59155   0.09764   1.000
    O282    O    0.31352   0.00581   0.09760   1.000
    O283    O    0.01518   0.36719   0.07143   1.000
    O284    O    0.03057   0.43267   0.09703   1.000
    O285    O    0.02216   0.30790   0.09782   1.000
    O286    O    0.07795   0.01271   0.07724   1.000
    O287    O    0.00719   0.01252   0.13826   1.000
    O288    O    0.00003   0.99966   0.00173   1.000
    O289    O    0.20308   0.21270   0.09410   1.000
    O290    O    0.21804   0.27992   0.10674   1.000
    O291    O    0.23439   0.35543   0.11786   1.000
    O292    O    0.24843   0.42282   0.12549   1.000
    O293    O    0.79102   0.62093   0.11690   1.000
    O294    O    0.82220   0.69504   0.12817   1.000
    O295    O    0.77923   0.58004   0.16553   1.000
    O296    O    0.22869   0.31574   0.18926   1.000
    O297    O    0.84149   0.72826   0.18811   1.000
    O298    O    0.97859   0.90887   0.20301   1.000
    O299    O    0.99423   0.97613   0.20927   1.000
    O300    O    0.01113   0.05175   0.21872   1.000
    O301    O    0.79057   0.61600   0.22498   1.000
    O302    O    0.21260   0.01558   0.23254   1.000
    O303    O    0.92952   0.35176   0.23315   1.000
    O304    O    0.21232   0.89041   0.23396   1.000
    O305    O    0.64512   0.30903   0.23842   1.000
    O306    O    0.80572   0.36034   0.23792   1.000
    O307    O    0.51982   0.31049   0.24171   1.000
    O308    O    0.02612   0.11922   0.22971   1.000
    O309    O    0.98373   0.93532   0.26150   1.000
    O310    O    0.82165   0.69011   0.23629   1.000
    O311    O    0.16251   0.73131   0.25045   1.000
    O312    O    0.16933   0.60612   0.25065   1.000
    O313    O    0.01798   0.08927   0.28084   1.000
    O314    O    0.16132   0.31308   0.25084   1.000
    O315    O    0.22750   0.24971   0.25386   1.000
    O316    O    0.22734   0.38331   0.25831   1.000
    O317    O    0.29641   0.32226   0.26096   1.000
    O318    O    0.79570   0.65404   0.28783   1.000
    O319    O    0.08037   0.31741   0.28691   1.000
    O320    O    0.87081   0.34916   0.26073   1.000
    O321    O    0.94308   0.33786   0.29061   1.000
    O322    O    0.21711   0.95652   0.25990   1.000
    O323    O    0.22429   0.02972   0.29281   1.000
    O324    O    0.22260   0.89265   0.29479   1.000
    O325    O    0.22944   0.16962   0.29274   1.000
    O326    O    0.80715   0.34436   0.29543   1.000
    O327    O    0.58779   0.31835   0.26606   1.000
    O328    O    0.66267   0.32832   0.29800   1.000
    O329    O    0.52583   0.32837   0.30136   1.000
    O330    O    0.23350   0.47465   0.30103   1.000
    O331    O    0.18529   0.67385   0.27306   1.000
    O332    O    0.20691   0.74853   0.30164   1.000
    O333    O    0.21270   0.61193   0.30236   1.000
    O334    O    0.38761   0.33259   0.30635   1.000
    O335    O    0.97554   0.90123   0.30989   1.000
    O336    O    0.99094   0.97133   0.32436   1.000
    O337    O    0.72703   0.55609   0.33419   1.000
    O338    O    0.01893   0.32656   0.32075   1.000
    O339    O    0.09133   0.32797   0.35072   1.000
    O340    O    0.00829   0.04965   0.33425   1.000
    O341    O    0.02412   0.12000   0.33776   1.000
    O342    O    0.95235   0.32308   0.35559   1.000
    O343    O    0.23197   0.10643   0.32564   1.000
    O344    O    0.23696   0.17829   0.35661   1.000
    O345    O    0.23631   0.03948   0.36068   1.000
    O346    O    0.76513   0.61944   0.34062   1.000
    O347    O    0.80683   0.68992   0.35399   1.000
    O348    O    0.74034   0.33772   0.32966   1.000
    O349    O    0.81622   0.32830   0.36006   1.000
    O350    O    0.22965   0.82608   0.32966   1.000
    O351    O    0.23442   0.90240   0.36263   1.000
    O352    O    0.25647   0.76086   0.35923   1.000
    O353    O    0.67512   0.34884   0.36498   1.000
    O354    O    0.23969   0.54650   0.33209   1.000
    O355    O    0.26151   0.62423   0.36034   1.000
    O356    O    0.25043   0.48408   0.36460   1.000
    O357    O    0.46022   0.33708   0.33683   1.000
    O358    O    0.53824   0.34833   0.36866   1.000
    O359    O    0.39792   0.33825   0.37024   1.000
    O360    O    0.99886   0.00799   0.38981   1.000
    O361    O    0.73486   0.58664   0.39122   1.000
    O362    O    0.84341   0.75323   0.37164   1.000
    O363    O    0.81714   0.72480   0.41750   1.000
    O364    O    0.18363   0.33464   0.39559   1.000
    O365    O    0.28366   0.69849   0.38863   1.000
    O366    O    0.30228   0.76563   0.41003   1.000
    O367    O    0.24636   0.26938   0.39868   1.000
    O368    O    0.88916   0.31833   0.39034   1.000
    O369    O    0.95558   0.31080   0.41370   1.000
    O370    O    0.30540   0.64029   0.41134   1.000
    O371    O    0.83066   0.31334   0.41761   1.000
    O372    O    0.24095   0.97604   0.39562   1.000
    O373    O    0.24645   0.04313   0.42100   1.000
    O374    O    0.24399   0.91721   0.42320   1.000
    O375    O    0.25561   0.40373   0.40281   1.000
    O376    O    0.61266   0.35884   0.40034   1.000
    O377    O    0.68007   0.36808   0.42484   1.000
    O378    O    0.55432   0.36625   0.42780   1.000
    O379    O    0.31807   0.33891   0.40579   1.000
    O380    O    0.24532   0.33887   0.46597   1.000
    O381    O    0.71020   0.56243   0.44014   1.000
    O382    O    0.74567   0.62300   0.45404   1.000
    O383    O    0.98213   0.96805   0.44192   1.000
    O384    O    0.01402   0.04233   0.45399   1.000
    O385    O    0.96560   0.92778   0.48988   1.000
    O386    O    0.78624   0.69068   0.46695   1.000
    O387    O    0.82328   0.75082   0.47619   1.000
    O388    O    0.02939   0.07633   0.51403   1.000
    O389    O    0.75779   0.65812   0.53614   1.000
    O390    O    0.17563   0.24801   0.52447   1.000
    O391    O    0.21385   0.30746   0.53445   1.000
    O392    O    0.25565   0.37437   0.54820   1.000
    O393    O    0.98127   0.96169   0.54993   1.000
    O394    O    0.18034   0.27405   0.58306   1.000
    O395    O    0.45171   0.62990   0.57402   1.000
    O396    O    0.01318   0.03596   0.56202   1.000
    O397    O    0.32591   0.62932   0.57661   1.000
    O398    O    0.75481   0.07646   0.57840   1.000
    O399    O    0.29214   0.43432   0.56293   1.000
    O400    O    0.75253   0.95071   0.58218   1.000
    O401    O    0.17656   0.68806   0.58388   1.000
    O402    O    0.05146   0.69112   0.58665   1.000
    O403    O    0.69504   0.35534   0.59046   1.000
    O404    O    0.69565   0.22978   0.59261   1.000
    O405    O    0.99725   0.99558   0.61411   1.000
    O406    O    0.26517   0.41063   0.61106   1.000
    O407    O    0.68713   0.65735   0.59682   1.000
    O408    O    0.74883   0.59229   0.59826   1.000
    O409    O    0.75835   0.72668   0.60452   1.000
    O410    O    0.82138   0.66125   0.60490   1.000
    O411    O    0.60755   0.65684   0.63264   1.000
    O412    O    0.39321   0.63755   0.60149   1.000
    O413    O    0.46740   0.64683   0.63363   1.000
    O414    O    0.33056   0.64785   0.63653   1.000
    O415    O    0.75502   0.51138   0.63486   1.000
    O416    O    0.75787   0.01812   0.60675   1.000
    O417    O    0.76474   0.09212   0.63886   1.000
    O418    O    0.76263   0.95535   0.64255   1.000
    O419    O    0.11748   0.68236   0.61031   1.000
    O420    O    0.18987   0.67077   0.64083   1.000
    O421    O    0.05362   0.67658   0.64414   1.000
    O422    O    0.71678   0.29689   0.61274   1.000
    O423    O    0.74205   0.37104   0.63960   1.000
    O424    O    0.74411   0.23427   0.64162   1.000
    O425    O    0.76593   0.81739   0.64742   1.000
    O426    O    0.91386   0.66875   0.64777   1.000
    O427    O    0.15164   0.24622   0.62805   1.000
    O428    O    0.18932   0.30883   0.64659   1.000
    O429    O    0.97572   0.88253   0.66539   1.000
    O430    O    0.23235   0.37849   0.66084   1.000
    O431    O    0.27184   0.44112   0.66804   1.000
    O432    O    0.98963   0.95316   0.66936   1.000
    O433    O    0.00487   0.03176   0.67979   1.000
    O434    O    0.54521   0.65713   0.66585   1.000
    O435    O    0.61779   0.66024   0.69640   1.000
    O436    O    0.76662   0.44865   0.66685   1.000
    O437    O    0.77515   0.52049   0.69800   1.000
    O438    O    0.47937   0.66570   0.70090   1.000
    O439    O    0.79450   0.38296   0.69542   1.000
    O440    O    0.77094   0.16888   0.67096   1.000
    O441    O    0.79723   0.24622   0.69704   1.000
    O442    O    0.26515   0.65936   0.67143   1.000
    O443    O    0.34257   0.66735   0.70366   1.000
    O444    O    0.77651   0.10294   0.70671   1.000
    O445    O    0.19775   0.65219   0.70478   1.000
    O446    O    0.19936   0.34456   0.71283   1.000
    O447    O    0.98636   0.67166   0.67800   1.000
    O448    O    0.06172   0.65925   0.70843   1.000
    O449    O    0.76816   0.88907   0.67809   1.000
    O450    O    0.77438   0.96614   0.71046   1.000
    O451    O    0.92489   0.68155   0.71150   1.000
    O452    O    0.77116   0.82585   0.71119   1.000
    O453    O    0.98171   0.91259   0.72250   1.000
    O454    O    0.01842   0.10203   0.69473   1.000
    O455    O    0.01178   0.06707   0.74288   1.000
    O456    O    0.82234   0.32077   0.72398   1.000
    O457    O    0.84128   0.38855   0.74496   1.000
    O458    O    0.84524   0.26287   0.74589   1.000
    O459    O    0.70956   0.67048   0.74055   1.000
    O460    O    0.78116   0.61113   0.74137   1.000
    O461    O    0.41720   0.67592   0.73589   1.000
    O462    O    0.48502   0.68259   0.76065   1.000
    O463    O    0.35969   0.68564   0.76343   1.000
    O464    O    0.13347   0.64645   0.73856   1.000
    O465    O    0.19810   0.63402   0.76156   1.000
    O466    O    0.07419   0.64298   0.76528   1.000
    O467    O    0.78139   0.03973   0.74251   1.000
    O468    O    0.78636   0.10628   0.76758   1.000
    O469    O    0.77578   0.74486   0.74827   1.000
    O470    O    0.78547   0.98133   0.77078   1.000
    O471    O    0.84460   0.68378   0.74860   1.000
    O472    O    0.17092   0.30929   0.76395   1.000
    O473    O    0.20357   0.38261   0.77565   1.000
    O474    O    0.77857   0.67759   0.81080   1.000
    O475    O    0.97509   0.88171   0.77344   1.000
    O476    O    0.98826   0.94939   0.78486   1.000
    O477    O    0.14994   0.27141   0.81197   1.000
    O478    O    0.00308   0.02527   0.79481   1.000
    O479    O    0.01675   0.09284   0.80154   1.000
    O480    O    0.21549   0.41800   0.83527   1.000
    O481    O    0.99215   0.98764   0.86537   1.000
    O482    O    0.17128   0.30328   0.87205   1.000
    O483    O    0.76166   0.57000   0.87502   1.000
    O484    O    0.77384   0.63758   0.88218   1.000
    O485    O    0.78804   0.71339   0.89270   1.000
    O486    O    0.20418   0.37654   0.88365   1.000
    O487    O    0.68111   0.93782   0.90392   1.000
    O488    O    0.40691   0.01177   0.90648   1.000
    O489    O    0.99795   0.69095   0.90732   1.000
    O490    O    0.99448   0.56577   0.90849   1.000
    O491    O    0.55657   0.94339   0.90735   1.000
    O492    O    0.28220   0.01763   0.91157   1.000
    O493    O    0.95328   0.40792   0.91314   1.000
    O494    O    0.94885   0.28224   0.91399   1.000
    O495    O    0.80133   0.78096   0.90488   1.000
    O496    O    0.19980   0.33309   0.93605   1.000
    O497    O    0.77090   0.59454   0.93422   1.000
    O498    O    0.79979   0.74892   0.95575   1.000
    O499    O    0.92220   0.97583   0.92475   1.000
    O500    O    0.99461   0.92414   0.92920   1.000
    O501    O    0.97952   0.05543   0.93243   1.000
    O502    O    0.05708   0.00527   0.93460   1.000
    O503    O    0.84099   0.97299   0.95894   1.000
    O504    O    0.62439   0.95548   0.93023   1.000
    O505    O    0.69949   0.96999   0.96011   1.000
    O506    O    0.56328   0.97767   0.96344   1.000
    O507    O    0.34921   0.01270   0.93513   1.000
    O508    O    0.42291   0.00672   0.96595   1.000
    O509    O    0.99925   0.63156   0.93461   1.000
    O510    O    0.96197   0.34914   0.93940   1.000
    O511    O    0.76981   0.55853   0.98266   1.000
    O512    O    0.77823   0.98494   0.99084   1.000
    O513    O    0.49946   0.00034   0.99697   1.000
    O514    O    0.76526   0.66877   0.67323   1.000
    O515    O    0.24046   0.32631   0.32809   1.000
loop_
    _geom_bond_atom_site_label_1
    _geom_bond_atom_site_label_2
    _geom_bond_distance
    _geom_bond_site_symmetry_2
    _ccdc_geom_bond_type
    C78    O240      0.74909      .   S
    C84    O240      0.74909      .   S
    C78    O241      0.74030      .   S
    C79    O241      0.74030  1_455   S
    C78    O242      0.65645  1_554   S
    C83    O242      0.65645      .   S
    C81    O243      0.73660      .   S
    C101   O243      0.73660  1_455   S
    C81    O244      0.74044  1_655   S
    C80    O244      0.74044      .   S
    C81    O245      0.67543  1_554   S
    C82    O245      0.67543      .   S
    C84    O246      0.68271      .   S
    C216   O246      0.68271  1_455   S
    C84    O247      0.59693  1_554   S
    C217   O247      0.59693      .   S
    C98    O248      0.70058      .   S
    C103   O248      0.70058      .   S
    C98    O249      0.69996  1_554   S
    C99    O249      0.69996      .   S
    C101   O250      0.70516      .   S
    C102   O250      0.70516      .   S
    C101   O251      0.70476  1_554   S
    C100   O251      0.70476  1_655   S
    C189   O252      0.69598      .   S
    C190   O252      0.69598      .   S
    C189   O253      0.54454  1_554   S
    C72    O253      0.54454      .   S
    C189   O254      0.70068  1_554   S
    C188   O254      0.70068      .   S
    C85    O255      0.74992      .   S
    C91    O255      0.74992      .   S
    C85    O256      0.70153      .   S
    C86    O256      0.70153      .   S
    C85    O257      0.70112  1_554   S
    C90    O257      0.70112      .   S
    C71    O258      0.54393      .   S
    C187   O258      0.54393      .   S
    C91    O259      0.63865      .   S
    C218   O259      0.63865      .   S
    C91    O260      0.63793  1_554   S
    C219   O260      0.63793      .   S
    C148   O261      0.73637      .   S
    C151   O261      0.73637      .   S
    C148   O262      0.70146  1_554   S
    C147   O262      0.70146      .   S
    C148   O263      0.70103      .   S
    C149   O263      0.70103  1_556   S
    C187   O264      0.69325      .   S
    C186   O264      0.69325      .   S
    C187   O265      0.70156      .   S
    C188   O265      0.70156  1_556   S
    C48    O266      0.54450      .   S
    C149   O266      0.54450  1_556   S
    C223   O267      1.04702      .   S
    C0     O267      1.04702  1_455   S
    C223   O268      0.63562  1_545   S
    C111   O268      0.63562  1_556   S
    C110   O269      0.68972      .   S
    C109   O269      0.68972      .   S
    C110   O270      0.53188      .   S
    C25    O270      0.53188      .   S
    C110   O271      0.65320  1_545   S
    C105   O271      0.65320  1_556   S
    C109   O272      0.49870      .   S
    C24    O272      0.49870      .   S
    C109   O273      0.68458  1_545   S
    C108   O273      0.68458  1_556   S
    C221   O274      1.04110      .   S
    C0     O274      1.04110  1_545   S
    C87    O275      0.69522      .   S
    C86    O275      0.69522      .   S
    C87    O276      0.54504  1_545   S
    C11    O276      0.54504      .   S
    C87    O277      0.70439      .   S
    C88    O277      0.70439  1_556   S
    C216   O278      1.02119      .   S
    C0     O278      1.02119      .   S
    C103   O279      0.69476      .   S
    C102   O279      0.69476      .   S
    C103   O280      0.54412      .   S
    C21    O280      0.54412      .   S
    C102   O281      0.54461      .   S
    C20    O281      0.54461      .   S
    C86    O282      0.54390      .   S
    C10    O282      0.54390      .   S
    C80    O283      0.69447      .   S
    C79    O283      0.69447      .   S
    C80    O284      0.54458      .   S
    C7     O284      0.54458      .   S
    C79    O285      0.54420      .   S
    C6     O285      0.54420      .   S
    C218   O286      1.04080      .   S
    C0     O286      1.04080      .   S
    C0     O287      1.02878      .   S
    C198   O287      1.02878      .   S
    C0     O288      1.41578  1_545   S
    C1     O288      1.41578  1_656   S
    C190   O289      0.54457      .   S
    C73    O289      0.54457      .   S
    C190   O290      0.67513      .   S
    C210   O290      0.67513      .   S
    C186   O291      0.67582      .   S
    C210   O291      0.67582      .   S
    C186   O292      0.54479      .   S
    C70    O292      0.54479      .   S
    C151   O293      0.67684      .   S
    C205   O293      0.67684      .   S
    C151   O294      0.67731      .   S
    C208   O294      0.67731      .   S
    C205   O295      0.66213      .   S
    C206   O295      0.66213      .   S
    C210   O296      1.04117      .   S
    C4     O296      1.04117      .   S
    C208   O297      0.66309      .   S
    C207   O297      0.66309      .   S
    C17    O298      0.54436      .   S
    C96    O298      0.54436      .   S
    C198   O299      0.67494  1_445   S
    C96    O299      0.67494      .   S
    C198   O300      0.67457      .   S
    C92    O300      0.67457      .   S
    C206   O301      0.67721      .   S
    C152   O301      0.67721      .   S
    C69    O302      0.54421      .   S
    C184   O302      0.54421      .   S
    C58    O303      0.54401      .   S
    C166   O303      0.54401      .   S
    C68    O304      0.54520      .   S
    C183   O304      0.54520      .   S
    C56    O305      0.54497      .   S
    C162   O305      0.54497      .   S
    C59    O306      0.54484      .   S
    C167   O306      0.54484      .   S
    C57    O307      0.54198      .   S
    C163   O307      0.54198      .   S
    C14    O308      0.54465      .   S
    C92    O308      0.54465      .   S
    C96    O309      0.69248      .   S
    C95    O309      0.69248      .   S
    C207   O310      0.67644      .   S
    C152   O310      0.67644      .   S
    C63    O311      0.54498      .   S
    C174   O311      0.54498      .   S
    C62    O312      0.54472      .   S
    C173   O312      0.54472      .   S
    C92    O313      0.69462      .   S
    C93    O313      0.69462      .   S
    C4     O314      1.04984      .   S
    C234   O314      1.04984      .   S
    C4     O315      1.02613      .   S
    C238   O315      1.02613      .   S
    C4     O316      1.04860      .   S
    C236   O316      1.04860      .   S
    C4     O317      1.03206      .   S
    C232   O317      1.03206      .   S
    C152   O318      0.73671      .   S
    C155   O318      0.73671      .   S
    C234   O319      0.63887      .   S
    C171   O319      0.63887      .   S
    C166   O320      0.69536      .   S
    C167   O320      0.69536      .   S
    C166   O321      0.70037      .   S
    C165   O321      0.70037      .   S
    C184   O322      0.69539  1_545   S
    C183   O322      0.69539      .   S
    C184   O323      0.70040      .   S
    C179   O323      0.70040      .   S
    C183   O324      0.70391      .   S
    C182   O324      0.70391      .   S
    C238   O325      0.63782      .   S
    C185   O325      0.63782      .   S
    C167   O326      0.70435      .   S
    C168   O326      0.70435      .   S
    C162   O327      0.69490      .   S
    C163   O327      0.69490      .   S
    C162   O328      0.70448      .   S
    C161   O328      0.70448      .   S
    C163   O329      0.70419      .   S
    C158   O329      0.70419      .   S
    C236   O330      0.63666      .   S
    C178   O330      0.63666      .   S
    C174   O331      0.69548      .   S
    C173   O331      0.69548      .   S
    C174   O332      0.70417      .   S
    C175   O332      0.70417      .   S
    C173   O333      0.70079      .   S
    C172   O333      0.70079      .   S
    C232   O334      0.63716      .   S
    C164   O334      0.63716      .   S
    C95    O335      0.54312      .   S
    C16    O335      0.54312      .   S
    C95    O336      0.70068      .   S
    C94    O336      0.70068  1_545   S
    C52    O337      0.54428      .   S
    C156   O337      0.54428      .   S
    C171   O338      0.74953      .   S
    C165   O338      0.74953  1_655   S
    C171   O339      0.63605      .   S
    C235   O339      0.63605      .   S
    C93    O340      0.70100      .   S
    C94    O340      0.70100  1_655   S
    C93    O341      0.54397      .   S
    C15    O341      0.54397      .   S
    C165   O342      0.70181      .   S
    C170   O342      0.70181      .   S
    C185   O343      0.74917      .   S
    C179   O343      0.74917      .   S
    C185   O344      0.63723      .   S
    C239   O344      0.63723      .   S
    C179   O345      0.70130      .   S
    C180   O345      0.70130      .   S
    C155   O346      0.70146      .   S
    C156   O346      0.70146      .   S
    C155   O347      0.70170      .   S
    C154   O347      0.70170      .   S
    C168   O348      0.73940      .   S
    C161   O348      0.73940      .   S
    C168   O349      0.70458      .   S
    C169   O349      0.70458      .   S
    C182   O350      0.73870      .   S
    C175   O350      0.73870      .   S
    C182   O351      0.70462      .   S
    C181   O351      0.70462      .   S
    C175   O352      0.70436      .   S
    C176   O352      0.70436      .   S
    C161   O353      0.70464      .   S
    C160   O353      0.70464      .   S
    C172   O354      0.74925      .   S
    C178   O354      0.74925      .   S
    C172   O355      0.70029      .   S
    C177   O355      0.70029      .   S
    C178   O356      0.63760      .   S
    C237   O356      0.63760      .   S
    C158   O357      0.75024      .   S
    C164   O357      0.75024      .   S
    C158   O358      0.70100      .   S
    C159   O358      0.70100      .   S
    C164   O359      0.63747      .   S
    C233   O359      0.63747      .   S
    C94    O360      0.73633      .   S
    C97    O360      0.73633      .   S
    C156   O361      0.69491      .   S
    C157   O361      0.69491      .   S
    C51    O362      0.54332      .   S
    C154   O362      0.54332      .   S
    C154   O363      0.69395      .   S
    C153   O363      0.69395      .   S
    C235   O364      1.04619      .   S
    C5     O364      1.04619      .   S
    C176   O365      0.69513      .   S
    C177   O365      0.69513      .   S
    C176   O366      0.54510      .   S
    C64    O366      0.54510      .   S
    C239   O367      1.03862      .   S
    C5     O367      1.03862      .   S
    C170   O368      0.69521      .   S
    C169   O368      0.69521      .   S
    C170   O369      0.54474      .   S
    C61    O369      0.54474      .   S
    C177   O370      0.54414      .   S
    C65    O370      0.54414      .   S
    C169   O371      0.54517      .   S
    C60    O371      0.54517      .   S
    C180   O372      0.69529  1_545   S
    C181   O372      0.69529      .   S
    C180   O373      0.54423      .   S
    C66    O373      0.54423      .   S
    C181   O374      0.54530      .   S
    C67    O374      0.54530      .   S
    C237   O375      1.03615      .   S
    C5     O375      1.03615      .   S
    C160   O376      0.69579      .   S
    C159   O376      0.69579      .   S
    C160   O377      0.54480      .   S
    C55    O377      0.54480      .   S
    C159   O378      0.54030      .   S
    C54    O378      0.54030      .   S
    C233   O379      1.02548      .   S
    C5     O379      1.02548      .   S
    C5     O380      1.03802      .   S
    C215   O380      1.03802      .   S
    C157   O381      0.54435      .   S
    C53    O381      0.54435      .   S
    C157   O382      0.67394      .   S
    C209   O382      0.67394      .   S
    C97    O383      0.67761  1_545   S
    C200   O383      0.67761      .   S
    C97    O384      0.67690  1_655   S
    C199   O384      0.67690      .   S
    C200   O385      0.66204      .   S
    C202   O385      0.66204      .   S
    C153   O386      0.67490      .   S
    C209   O386      0.67490      .   S
    C153   O387      0.54487      .   S
    C50    O387      0.54487      .   S
    C199   O388      0.66247      .   S
    C203   O388      0.66247      .   S
    C209   O389      1.03671      .   S
    C3     O389      1.03671      .   S
    C74    O390      0.54474      .   S
    C193   O390      0.54474      .   S
    C215   O391      0.67510      .   S
    C193   O391      0.67510      .   S
    C215   O392      0.67409      .   S
    C197   O392      0.67409      .   S
    C202   O393      0.67719      .   S
    C117   O393      0.67719      .   S
    C193   O394      0.69416      .   S
    C194   O394      0.69416      .   S
    C30    O395      0.54489      .   S
    C119   O395      0.54489      .   S
    C203   O396      0.67735      .   S
    C117   O396      0.67735  1_665   S
    C31    O397      0.54488      .   S
    C120   O397      0.54488      .   S
    C43    O398      0.54543      .   S
    C141   O398      0.54543      .   S
    C77    O399      0.54438      .   S
    C197   O399      0.54438      .   S
    C42    O400      0.54450      .   S
    C140   O400      0.54450      .   S
    C36    O401      0.54516      .   S
    C129   O401      0.54516      .   S
    C37    O402      0.54478      .   S
    C130   O402      0.54478      .   S
    C41    O403      0.54427      .   S
    C137   O403      0.54427      .   S
    C40    O404      0.54517      .   S
    C136   O404      0.54517      .   S
    C117   O405      0.73586      .   S
    C114   O405      0.73586      .   S
    C197   O406      0.69501      .   S
    C196   O406      0.69501      .   S
    C3     O407      1.02143      .   S
    C225   O407      1.02143      .   S
    C3     O408      1.03663      .   S
    C229   O408      1.03663      .   S
    C3     O409      1.03570      .   S
    C231   O409      1.03570      .   S
    C3     O410      1.04542      .   S
    C227   O410      1.04542      .   S
    C225   O411      0.63744      .   S
    C124   O411      0.63744      .   S
    C119   O412      0.69567      .   S
    C120   O412      0.69567      .   S
    C119   O413      0.70123      .   S
    C118   O413      0.70123      .   S
    C120   O414      0.70446      .   S
    C121   O414      0.70446      .   S
    C229   O415      0.63647      .   S
    C138   O415      0.63647      .   S
    C141   O416      0.69512      .   S
    C140   O416      0.69512  1_565   S
    C141   O417      0.70423      .   S
    C142   O417      0.70423      .   S
    C140   O418      0.70154      .   S
    C139   O418      0.70154      .   S
    C129   O419      0.69545      .   S
    C130   O419      0.69545      .   S
    C129   O420      0.70473      .   S
    C128   O420      0.70473      .   S
    C130   O421      0.70137      .   S
    C125   O421      0.70137      .   S
    C137   O422      0.69542      .   S
    C136   O422      0.69542      .   S
    C137   O423      0.70037      .   S
    C132   O423      0.70037      .   S
    C136   O424      0.70411      .   S
    C135   O424      0.70411      .   S
    C231   O425      0.63715      .   S
    C145   O425      0.63715      .   S
    C227   O426      0.63316      .   S
    C131   O426      0.63316      .   S
    C194   O427      0.54345      .   S
    C75    O427      0.54345      .   S
    C194   O428      0.70172      .   S
    C195   O428      0.70172      .   S
    C27    O429      0.54369      .   S
    C113   O429      0.54369      .   S
    C196   O430      0.70171      .   S
    C195   O430      0.70171      .   S
    C196   O431      0.54409      .   S
    C76    O431      0.54409      .   S
    C114   O432      0.70088      .   S
    C113   O432      0.70088      .   S
    C114   O433      0.70094  1_665   S
    C115   O433      0.70094      .   S
    C124   O434      0.75006      .   S
    C118   O434      0.75006      .   S
    C124   O435      0.63678      .   S
    C224   O435      0.63678      .   S
    C138   O436      0.74906      .   S
    C132   O436      0.74906      .   S
    C138   O437      0.63756      .   S
    C228   O437      0.63756      .   S
    C118   O438      0.70084      .   S
    C123   O438      0.70084      .   S
    C132   O439      0.70073      .   S
    C133   O439      0.70073      .   S
    C135   O440      0.73839      .   S
    C142   O440      0.73839      .   S
    C135   O441      0.70391      .   S
    C134   O441      0.70391      .   S
    C121   O442      0.73931      .   S
    C128   O442      0.73931      .   S
    C121   O443      0.70445      .   S
    C122   O443      0.70445      .   S
    C142   O444      0.70376      .   S
    C143   O444      0.70376      .   S
    C128   O445      0.70408      .   S
    C127   O445      0.70408      .   S
    C195   O446      0.73667      .   S
    C192   O446      0.73667      .   S
    C125   O447      0.74903  1_455   S
    C131   O447      0.74903      .   S
    C125   O448      0.70051      .   S
    C126   O448      0.70051      .   S
    C139   O449      0.74927      .   S
    C145   O449      0.74927      .   S
    C139   O450      0.70065      .   S
    C144   O450      0.70065      .   S
    C131   O451      0.64218      .   S
    C226   O451      0.64218      .   S
    C145   O452      0.63822      .   S
    C230   O452      0.63822      .   S
    C113   O453      0.69495      .   S
    C112   O453      0.69495      .   S
    C28    O454      0.54317      .   S
    C115   O454      0.54317      .   S
    C115   O455      0.69277      .   S
    C116   O455      0.69277      .   S
    C133   O456      0.69531      .   S
    C134   O456      0.69531      .   S
    C133   O457      0.54462      .   S
    C38    O457      0.54462      .   S
    C134   O458      0.54494      .   S
    C39    O458      0.54494      .   S
    C224   O459      1.03885      .   S
    C2     O459      1.03885      .   S
    C228   O460      1.04455      .   S
    C2     O460      1.04455      .   S
    C123   O461      0.69554      .   S
    C122   O461      0.69554      .   S
    C123   O462      0.54472      .   S
    C33    O462      0.54472      .   S
    C122   O463      0.54500      .   S
    C32    O463      0.54500      .   S
    C127   O464      0.69515      .   S
    C126   O464      0.69515      .   S
    C127   O465      0.54482      .   S
    C35    O465      0.54482      .   S
    C126   O466      0.54376      .   S
    C34    O466      0.54376      .   S
    C143   O467      0.69571      .   S
    C144   O467      0.69571  1_565   S
    C143   O468      0.54514      .   S
    C44    O468      0.54514      .   S
    C230   O469      1.03488      .   S
    C2     O469      1.03488      .   S
    C144   O470      0.54437      .   S
    C45    O470      0.54437      .   S
    C226   O471      1.04243      .   S
    C2     O471      1.04243      .   S
    C192   O472      0.67627      .   S
    C213   O472      0.67627      .   S
    C192   O473      0.67735      .   S
    C212   O473      0.67735      .   S
    C2     O474      1.03567      .   S
    C204   O474      1.03567      .   S
    C112   O475      0.54470      .   S
    C26    O475      0.54470      .   S
    C112   O476      0.67440      .   S
    C201   O476      0.67440      .   S
    C213   O477      0.66383      .   S
    C214   O477      0.66383      .   S
    C116   O478      0.67471      .   S
    C201   O478      0.67471  1_665   S
    C116   O479      0.54464      .   S
    C29    O479      0.54464      .   S
    C212   O480      0.66184      .   S
    C211   O480      0.66184      .   S
    C201   O481      1.02499      .   S
    C1     O481      1.02499      .   S
    C214   O482      0.67725      .   S
    C191   O482      0.67725      .   S
    C46    O483      0.54486      .   S
    C146   O483      0.54486      .   S
    C204   O484      0.67559      .   S
    C146   O484      0.67559      .   S
    C204   O485      0.67478      .   S
    C150   O485      0.67478      .   S
    C211   O486      0.67707      .   S
    C191   O486      0.67707      .   S
    C22    O487      0.54473      .   S
    C106   O487      0.54473      .   S
    C12    O488      0.54515      .   S
    C89    O488      0.54515      .   S
    C18    O489      0.54418      .   S
    C99    O489      0.54418  1_455   S
    C19    O490      0.54455      .   S
    C100   O490      0.54455      .   S
    C23    O491      0.54515      .   S
    C107   O491      0.54515      .   S
    C13    O492      0.54472      .   S
    C90    O492      0.54472      .   S
    C8     O493      0.54445      .   S
    C82    O493      0.54445      .   S
    C9     O494      0.54428      .   S
    C83    O494      0.54428      .   S
    C49    O495      0.54475      .   S
    C150   O495      0.54475      .   S
    C191   O496      0.73631      .   S
    C188   O496      0.73631      .   S
    C146   O497      0.69335      .   S
    C147   O497      0.69335      .   S
    C150   O498      0.69518      .   S
    C149   O498      0.69518      .   S
    C1     O499      1.04152      .   S
    C222   O499      1.04152      .   S
    C1     O500      1.02153      .   S
    C220   O500      1.02153  1_455   S
    C1     O501      1.04990  1_565   S
    C217   O501      1.04990      .   S
    C1     O502      1.04924  1_665   S
    C219   O502      1.04924      .   S
    C222   O503      0.63974      .   S
    C111   O503      0.63974      .   S
    C106   O504      0.69661      .   S
    C107   O504      0.69661      .   S
    C106   O505      0.70142      .   S
    C105   O505      0.70142      .   S
    C107   O506      0.70444      .   S
    C108   O506      0.70444      .   S
    C89    O507      0.69590      .   S
    C90    O507      0.69590      .   S
    C89    O508      0.70434      .   S
    C88    O508      0.70434      .   S
    C99    O509      0.69601  1_455   S
    C100   O509      0.69601      .   S
    C82    O510      0.69539      .   S
    C83    O510      0.69539      .   S
    C147   O511      0.54395      .   S
    C47    O511      0.54395      .   S
    C111   O512      0.74996      .   S
    C105   O512      0.74996      .   S
    C108   O513      0.74000  1_565   S
    C88    O513      0.74000      .   S
    C2     O514      1.42180      .   S
    C3     O514      1.42180      .   S
    C4     O515      1.43904      .   S
    C5     O515      1.43904      .   S
