# CIF file generated by openbabel 2.4.90, see http://openbabel.sf.net
data_I
_chemical_name_common ''
_cell_length_a 20.781
_cell_length_b 12.145
_cell_length_c 12.144
_cell_angle_alpha 96.958
_cell_angle_beta 105.259
_cell_angle_gamma 74.891
_space_group_name_H-M_alt 'P 1'
_space_group_name_Hall 'P 1'
loop_
    _symmetry_equiv_pos_as_xyz
    x,y,z
loop_
    _atom_site_label
    _atom_site_type_symbol
    _atom_site_fract_x
    _atom_site_fract_y
    _atom_site_fract_z
    _atom_site_occupancy
    Zn0     Zn   0.50000   0.00001   0.40000   1.000
    H1      H    0.45005   0.19140   0.82902   1.000
    H2      H    0.95005   0.19139   0.82898   1.000
    H3      H    0.36958   0.21815   0.63902   1.000
    H4      H    0.86958   0.21813   0.63897   1.000
    H5      H    0.12239   0.08992   0.67532   1.000
    H6      H    0.62238   0.08991   0.67534   1.000
    H7      H    0.10249   0.10121   0.46299   1.000
    H8      H    0.60247   0.10119   0.46301   1.000
    H9      H    0.39652   0.14112   0.25514   1.000
    H10     H    0.89653   0.14110   0.25511   1.000
    H11     H    0.34957   0.19066   0.42691   1.000
    H12     H    0.84958   0.19064   0.42687   1.000
    H13     H    0.29996   0.82909   0.19124   1.000
    H14     H    0.79994   0.82908   0.19128   1.000
    H15     H    0.38045   0.63949   0.21801   1.000
    H16     H    0.88044   0.63948   0.21808   1.000
    H17     H    0.12758   0.67466   0.09005   1.000
    H18     H    0.62756   0.67465   0.09007   1.000
    H19     H    0.14758   0.46229   0.10149   1.000
    H20     H    0.64757   0.46227   0.10153   1.000
    H21     H    0.35351   0.25558   0.14135   1.000
    H22     H    0.85349   0.25557   0.14139   1.000
    H23     H    0.40042   0.42761   0.19065   1.000
    H24     H    0.90041   0.42760   0.19071   1.000
    H25     H    0.04995   0.80865   0.17109   1.000
    H26     H    0.54994   0.80864   0.17103   1.000
    H27     H    0.13042   0.78190   0.36110   1.000
    H28     H    0.63042   0.78189   0.36103   1.000
    H29     H    0.37761   0.91013   0.32470   1.000
    H30     H    0.87760   0.91011   0.32473   1.000
    H31     H    0.39751   0.89884   0.53704   1.000
    H32     H    0.89750   0.89881   0.53708   1.000
    H33     H    0.10345   0.85895   0.74495   1.000
    H34     H    0.60347   0.85891   0.74490   1.000
    H35     H    0.15041   0.80941   0.57319   1.000
    H36     H    0.65042   0.80938   0.57314   1.000
    H37     H    0.20005   0.17096   0.80870   1.000
    H38     H    0.70004   0.17094   0.80879   1.000
    H39     H    0.11956   0.36055   0.78195   1.000
    H40     H    0.61955   0.36054   0.78200   1.000
    H41     H    0.37243   0.32539   0.90995   1.000
    H42     H    0.87242   0.32537   0.90990   1.000
    H43     H    0.35243   0.53776   0.89850   1.000
    H44     H    0.85242   0.53775   0.89855   1.000
    H45     H    0.14650   0.74446   0.85864   1.000
    H46     H    0.64649   0.74445   0.85860   1.000
    H47     H    0.09959   0.57243   0.80931   1.000
    H48     H    0.59957   0.57242   0.80936   1.000
    C49     C    0.08773   0.10805   0.87812   1.000
    C50     C    0.58773   0.10804   0.87815   1.000
    C51     C    0.04139   0.13671   0.76360   1.000
    C52     C    0.54139   0.13670   0.76367   1.000
    C53     C    0.46950   0.17665   0.75253   1.000
    C54     C    0.96949   0.17664   0.75249   1.000
    C55     C    0.42486   0.19095   0.64660   1.000
    C56     C    0.92486   0.19095   0.64657   1.000
    C57     C    0.44957   0.16797   0.54587   1.000
    C58     C    0.94957   0.16798   0.54584   1.000
    C59     C    0.02259   0.13680   0.55653   1.000
    C60     C    0.52258   0.13679   0.55656   1.000
    C61     C    0.06722   0.12011   0.66690   1.000
    C62     C    0.56721   0.12010   0.66694   1.000
    C63     C    0.04737   0.11990   0.45597   1.000
    C64     C    0.54736   0.11989   0.45000   1.000
    C65     C    0.02769   0.10825   0.24219   1.000
    C66     C    0.52768   0.10823   0.24223   1.000
    C67     C    0.00237   0.12466   0.34873   1.000
    C68     C    0.50236   0.12466   0.34876   1.000
    C69     C    0.43069   0.14550   0.33940   1.000
    C70     C    0.93070   0.14549   0.33942   1.000
    C71     C    0.40490   0.17080   0.43520   1.000
    C72     C    0.90491   0.17079   0.43517   1.000
    C73     C    0.16231   0.87769   0.10823   1.000
    C74     C    0.66230   0.87767   0.10823   1.000
    C75     C    0.20860   0.76332   0.13669   1.000
    C76     C    0.70859   0.76331   0.13671   1.000
    C77     C    0.28052   0.75251   0.17655   1.000
    C78     C    0.78051   0.75250   0.17659   1.000
    C79     C    0.32516   0.64682   0.19086   1.000
    C80     C    0.82515   0.64681   0.19092   1.000
    C81     C    0.30044   0.54600   0.16797   1.000
    C82     C    0.80042   0.54599   0.16803   1.000
    C83     C    0.22742   0.55631   0.13687   1.000
    C84     C    0.72741   0.55630   0.13691   1.000
    C85     C    0.18277   0.66650   0.12017   1.000
    C86     C    0.68276   0.66648   0.12020   1.000
    C87     C    0.20268   0.45559   0.12011   1.000
    C88     C    0.70267   0.45558   0.12015   1.000
    C89     C    0.22248   0.24182   0.10800   1.000
    C90     C    0.72247   0.24181   0.10875   1.000
    C91     C    0.24769   0.34859   0.12493   1.000
    C92     C    0.74768   0.34858   0.12498   1.000
    C93     C    0.31933   0.33969   0.14560   1.000
    C94     C    0.81932   0.33968   0.14572   1.000
    C95     C    0.34511   0.43558   0.17086   1.000
    C96     C    0.84509   0.43557   0.17091   1.000
    C97     C    0.41227   0.89199   0.12190   1.000
    C98     C    0.91227   0.89198   0.12195   1.000
    C99     C    0.45860   0.86333   0.23638   1.000
    C100    C    0.95860   0.86333   0.23640   1.000
    C101    C    0.03050   0.82340   0.24758   1.000
    C102    C    0.53050   0.82339   0.24752   1.000
    C103    C    0.07513   0.80909   0.35350   1.000
    C104    C    0.57513   0.80908   0.35344   1.000
    C105    C    0.05042   0.83206   0.45420   1.000
    C106    C    0.55042   0.83206   0.45417   1.000
    C107    C    0.47741   0.86324   0.44349   1.000
    C108    C    0.97740   0.86324   0.44354   1.000
    C109    C    0.43278   0.87993   0.33310   1.000
    C110    C    0.93277   0.87992   0.33315   1.000
    C111    C    0.45263   0.88015   0.54405   1.000
    C112    C    0.95262   0.88013   0.54410   1.000
    C113    C    0.47232   0.89180   0.75783   1.000
    C114    C    0.97231   0.89179   0.75789   1.000
    C115    C    0.49763   0.87538   0.65120   1.000
    C116    C    0.99761   0.87537   0.65133   1.000
    C117    C    0.06928   0.85455   0.66065   1.000
    C118    C    0.56930   0.85453   0.66060   1.000
    C119    C    0.09508   0.82925   0.56489   1.000
    C120    C    0.59509   0.82923   0.56484   1.000
    C121    C    0.33770   0.12236   0.89180   1.000
    C122    C    0.83769   0.12235   0.89183   1.000
    C123    C    0.29141   0.23673   0.86331   1.000
    C124    C    0.79140   0.23671   0.86330   1.000
    C125    C    0.21949   0.24754   0.82343   1.000
    C126    C    0.71948   0.24752   0.82348   1.000
    C127    C    0.17485   0.35322   0.80911   1.000
    C128    C    0.67484   0.35321   0.80916   1.000
    C129    C    0.19957   0.45405   0.83200   1.000
    C130    C    0.69956   0.45403   0.83204   1.000
    C131    C    0.27259   0.44374   0.86311   1.000
    C132    C    0.77257   0.44372   0.86316   1.000
    C133    C    0.31724   0.33355   0.87982   1.000
    C134    C    0.81723   0.33354   0.87980   1.000
    C135    C    0.29733   0.54446   0.87988   1.000
    C136    C    0.79732   0.54444   0.87993   1.000
    C137    C    0.27752   0.75823   0.89129   1.000
    C138    C    0.77752   0.75821   0.89138   1.000
    C139    C    0.25231   0.65145   0.87506   1.000
    C140    C    0.75230   0.65144   0.87511   1.000
    C141    C    0.18067   0.66036   0.85431   1.000
    C142    C    0.68066   0.66034   0.85436   1.000
    C143    C    0.15490   0.56446   0.82912   1.000
    C144    C    0.65489   0.56445   0.82917   1.000
    O145    O    0.05855   0.11972   0.96376   1.000
    O146    O    0.55856   0.11970   0.96380   1.000
    O147    O    0.08834   0.12072   0.25169   1.000
    O148    O    0.58834   0.12070   0.25176   1.000
    O149    O    0.48663   0.08615   0.14870   1.000
    O150    O    0.98662   0.08618   0.14867   1.000
    O151    O    0.15161   0.07569   0.88880   1.000
    O152    O    0.65161   0.07566   0.88882   1.000
    O153    O    0.19161   0.96332   0.11998   1.000
    O154    O    0.69161   0.96331   0.12000   1.000
    O155    O    0.16200   0.25084   0.12156   1.000
    O156    O    0.66199   0.25083   0.12162   1.000
    O157    O    0.26350   0.14863   0.08640   1.000
    O158    O    0.76350   0.14860   0.08650   1.000
    O159    O    0.09838   0.88843   0.07599   1.000
    O160    O    0.59837   0.88842   0.07596   1.000
    O161    O    0.44145   0.88033   0.03626   1.000
    O162    O    0.94147   0.88031   0.03632   1.000
    O163    O    0.41166   0.87933   0.74833   1.000
    O164    O    0.91166   0.87930   0.74843   1.000
    O165    O    0.01338   0.91388   0.85130   1.000
    O166    O    0.51337   0.91390   0.85134   1.000
    O167    O    0.34839   0.92438   0.11121   1.000
    O168    O    0.84839   0.92435   0.11124   1.000
    O169    O    0.30839   0.03673   0.88002   1.000
    O170    O    0.80838   0.03671   0.88005   1.000
    O171    O    0.33801   0.74921   0.87846   1.000
    O172    O    0.83800   0.74920   0.87853   1.000
    O173    O    0.23650   0.85143   0.91356   1.000
    O174    O    0.73649   0.85141   0.91365   1.000
    O175    O    0.40162   0.11163   0.92411   1.000
    O176    O    0.90161   0.11160   0.92400   1.000
loop_
    _geom_bond_atom_site_label_1
    _geom_bond_atom_site_label_2
    _geom_bond_distance
    _geom_bond_site_symmetry_2
    _ccdc_geom_bond_type
    O161   C97       1.31190      .   S
    O162   C98       1.31192      .   S
    O160   C74       1.25830      .   S
    O159   C73       1.25828      .   S
    O157   C89       1.27249      .   S
    O158   C90       1.27483      .   S
    H17    C85       1.08983      .   S
    H18    C86       1.08982      .   S
    H19    C87       1.09017      .   S
    H20    C88       1.09017      .   S
    C89    O155      1.28517      .   S
    C89    C91       1.49372      .   S
    C73    O153      1.31199      .   S
    C73    C75       1.48958      .   S
    C74    O154      1.31201      .   S
    C74    C76       1.48958      .   S
    C90    O156      1.28207      .   S
    C90    C92       1.49423      .   S
    O167   C97       1.25832      .   S
    O168   C98       1.25831      .   S
    C87    C91       1.38672      .   S
    C87    C83       1.41940      .   S
    C88    C92       1.38673      .   S
    C88    C84       1.41940      .   S
    C85    C75       1.38799      .   S
    C85    C83       1.41857      .   S
    C86    C76       1.38800      .   S
    C86    C84       1.41856      .   S
    C97    C99       1.48962      .   S
    C98    C100      1.48928      .   S
    C91    C93       1.42020      .   S
    C92    C94       1.42013      .   S
    C75    C77       1.42043      .   S
    C76    C78       1.42045      .   S
    C83    C81       1.43920      .   S
    C84    C82       1.43920      .   S
    H21    C93       1.08569      .   S
    H22    C94       1.08579      .   S
    C93    C95       1.37458      .   S
    C94    C96       1.37455      .   S
    O150   C65       1.27485  1_655   S
    O149   C66       1.27481      .   S
    C81    C95       1.41651      .   S
    C81    C79       1.41809      .   S
    C82    C96       1.41649      .   S
    C82    C80       1.41810      .   S
    C95    H23       1.09123      .   S
    C96    H24       1.09122      .   S
    H26    C102      1.08523      .   S
    H25    C101      1.08524      .   S
    C77    C79       1.37358      .   S
    C77    H13       1.08520      .   S
    C78    C80       1.37358      .   S
    C78    H14       1.08519      .   S
    C79    H15       1.09147      .   S
    C80    H16       1.09145      .   S
    C99    C102      1.42041      .   S
    C99    C109      1.38791      .   S
    C100   C101      1.42042  1_655   S
    C100   C110      1.38830      .   S
    C65    O147      1.28214      .   S
    C65    C67       1.49382      .   S
    C66    O148      1.28217      .   S
    C66    C68       1.49377      .   S
    C102   C104      1.37375      .   S
    C101   C103      1.37372      .   S
    H10    C70       1.08590      .   S
    H9     C69       1.08544      .   S
    H29    C109      1.08977      .   S
    H30    C110      1.08975      .   S
    C109   C107      1.41841      .   S
    C110   C108      1.41837      .   S
    C69    C68       1.42003      .   S
    C69    C71       1.37508      .   S
    C70    C67       1.42020  1_655   S
    C70    C72       1.37458      .   S
    C67    C63       1.38667      .   S
    C68    C64       1.33164      .   S
    C68    Zn0       1.72177      .   S
    C104   H28       1.09146      .   S
    C104   C106      1.41813      .   S
    C103   H27       1.09146      .   S
    C103   C105      1.41785      .   S
    H12    C72       1.09123      .   S
    H11    C71       1.09124      .   S
    C72    C58       1.41663      .   S
    C71    C57       1.41665      .   S
    C107   C106      1.43913      .   S
    C107   C111      1.41912      .   S
    C108   C105      1.43927  1_655   S
    C108   C112      1.41917      .   S
    C64    H8        1.07991      .   S
    C64    C60       1.48771      .   S
    C106   C120      1.41664      .   S
    C105   C119      1.41681      .   S
    C63    H7        1.09015      .   S
    C63    C59       1.41915      .   S
    H31    C111      1.09016      .   S
    H32    C112      1.09015      .   S
    C111   C115      1.38584      .   S
    C112   C116      1.38657      .   S
    C58    C59       1.43921  1_655   S
    C58    C56       1.41814      .   S
    C57    C60       1.43911      .   S
    C57    C55       1.41810      .   S
    C59    C61       1.41819      .   S
    C60    C62       1.41832      .   S
    C120   H36       1.09122      .   S
    C120   C118      1.37464      .   S
    C119   H35       1.09123      .   S
    C119   C117      1.37469      .   S
    H4     C56       1.09146      .   S
    H3     C55       1.09146      .   S
    C56    C54       1.37374      .   S
    C55    C53       1.37387      .   S
    C115   C118      1.41995      .   S
    C115   C113      1.49482      .   S
    C116   C117      1.42020  1_655   S
    C116   C114      1.49394      .   S
    C118   H34       1.08582      .   S
    C117   H33       1.08582      .   S
    C61    H5        1.08975      .   S
    C61    C51       1.38769      .   S
    C62    H6        1.08977      .   S
    C62    C52       1.38797      .   S
    O163   C113      1.28216      .   S
    O164   C114      1.28210      .   S
    C54    C51       1.42054  1_655   S
    C54    H2        1.08525      .   S
    C53    C52       1.42041      .   S
    C53    H1        1.08522      .   S
    C113   O166      1.27477      .   S
    C114   O165      1.27411  1_655   S
    C51    C49       1.49001      .   S
    C52    C50       1.48967      .   S
    H39    C127      1.09145      .   S
    H40    C128      1.09146      .   S
    H37    C125      1.08518      .   S
    H38    C126      1.08519      .   S
    C127   C125      1.37358      .   S
    C127   C129      1.41811      .   S
    C128   C126      1.37359      .   S
    C128   C130      1.41810      .   S
    H47    C143      1.09122      .   S
    H48    C144      1.09122      .   S
    C125   C123      1.42044      .   S
    C126   C124      1.42040      .   S
    C143   C129      1.41649      .   S
    C143   C141      1.37455      .   S
    C144   C130      1.41650      .   S
    C144   C142      1.37455      .   S
    C129   C131      1.43920      .   S
    C130   C132      1.43920      .   S
    C141   H45       1.08579      .   S
    C141   C139      1.42014      .   S
    C142   H46       1.08568      .   S
    C142   C140      1.42014      .   S
    C131   C133      1.41857      .   S
    C131   C135      1.41939      .   S
    C132   C134      1.41849      .   S
    C132   C136      1.41938      .   S
    C124   C134      1.38801      .   S
    C124   C122      1.48966      .   S
    C123   C133      1.38800      .   S
    C123   C121      1.48959      .   S
    C139   C135      1.38672      .   S
    C139   C137      1.49425      .   S
    C140   C136      1.38672      .   S
    C140   C138      1.49426      .   S
    C49    O151      1.25832      .   S
    C49    O145      1.31182      .   S
    C50    O152      1.25831      .   S
    C50    O146      1.31185      .   S
    O171   C137      1.28201      .   S
    O172   C138      1.28202      .   S
    C134   H42       1.08980      .   S
    C133   H41       1.08981      .   S
    C135   H43       1.09017      .   S
    C136   H44       1.09018      .   S
    O169   C121      1.31199      .   S
    O170   C122      1.31199      .   S
    C137   O173      1.27485      .   S
    C138   O174      1.27484      .   S
    C121   O175      1.25829      .   S
    C122   O176      1.25826      .   S
