# CIF file generated by openbabel 2.4.90, see http://openbabel.sf.net
data_I
_chemical_name_common ''
_cell_length_a 20.781
_cell_length_b 12.145
_cell_length_c 12.144
_cell_angle_alpha 96.958
_cell_angle_beta 105.259
_cell_angle_gamma 74.891
_space_group_name_H-M_alt 'P 1'
_space_group_name_Hall 'P 1'
loop_
    _symmetry_equiv_pos_as_xyz
    x,y,z
loop_
    _atom_site_label
    _atom_site_type_symbol
    _atom_site_fract_x
    _atom_site_fract_y
    _atom_site_fract_z
    _atom_site_occupancy
    N0      N    0.00235   0.13823   0.55330   1.000
    N1      N    0.50234   0.13822   0.55306   1.000
    N2      N    0.74769   0.55318   0.13842   1.000
    N3      N    0.75229   0.44683   0.86164   1.000
    N4      N    0.25230   0.44685   0.86161   1.000
    N5      N    0.49765   0.86181   0.44670   1.000
    N6      N    0.99765   0.86181   0.44676   1.000
    N7      N    0.24770   0.55320   0.13834   1.000
    Zr8     Zr   0.12515   0.11696   0.11798   1.000
    O9      O    0.16410   0.95682   0.12332   1.000
    O10     O    0.16039   0.24276   0.12352   1.000
    O11     O    0.08612   0.12262   0.95753   1.000
    O12     O    0.08985   0.12275   0.24352   1.000
    Zr13    Zr   0.87486   0.88308   0.88217   1.000
    O14     O    0.91388   0.87742   0.04258   1.000
    O15     O    0.83961   0.75728   0.87658   1.000
    O16     O    0.91016   0.87729   0.75660   1.000
    O17     O    0.83591   0.04322   0.87677   1.000
    Zr18    Zr   0.74999   0.00000   0.10000   1.000
    O19     O    0.82420   0.95600   0.18809   1.000
    O20     O    0.74212   0.88371   0.11211   1.000
    O21     O    0.75110   0.15687   0.10792   1.000
    Zr22    Zr   0.25000   0.00000   0.99999   1.000
    O23     O    0.25111   0.15688   0.04538   1.000
    O24     O    0.24213   0.88372   0.04958   1.000
    O25     O    0.32421   0.95600   0.12557   1.000
    O26     O    0.24889   0.84314   0.95459   1.000
    O27     O    0.25787   0.11631   0.95040   1.000
    O28     O    0.17579   0.04402   0.87442   1.000
    Zr29    Zr   0.00000   0.00001   0.90000   1.000
    O30     O    0.00109   0.95469   0.78060   1.000
    O31     O    0.92578   0.12566   0.89341   1.000
    O32     O    0.00791   0.04953   0.82130   1.000
    Zr33    Zr   0.37485   0.88310   0.88205   1.000
    O34     O    0.41015   0.87730   0.75650   1.000
    O35     O    0.33591   0.04324   0.87669   1.000
    O36     O    0.33961   0.75730   0.87649   1.000
    O37     O    0.41388   0.87743   0.04249   1.000
    Zr38    Zr   0.62515   0.11694   0.11806   1.000
    O39     O    0.66039   0.24274   0.12359   1.000
    O40     O    0.66409   0.95680   0.12339   1.000
    O41     O    0.58985   0.12273   0.24352   1.000
    O42     O    0.58613   0.12261   0.95753   1.000
loop_
    _geom_bond_atom_site_label_1
    _geom_bond_atom_site_label_2
    _geom_bond_distance
    _geom_bond_site_symmetry_2
    _ccdc_geom_bond_type
    Zr8    O9        1.90380  1_545   S
    N7     O9        4.76349      .   S
    Zr8    O10       1.84596      .   S
    N7     O10       4.55738      .   S
    Zr8    O11       1.90541  1_554   S
    N0     O11       4.76652      .   S
    Zr8    O12       1.84484      .   S
    N0     O12       4.55468      .   S
    Zr13   O14       1.90505  1_556   S
    N6     O14       4.76582      .   S
    Zr13   O15       1.84595      .   S
    N3     O15       4.55734      .   S
    Zr13   O16       1.84507      .   S
    N6     O16       4.55526      .   S
    Zr13   O17       1.90381  1_565   S
    N3     O17       4.76352      .   S
    Zr18   O19       1.62760  1_545   S
    N6     O19       4.11444      .   S
    Zr18   O20       1.49217  1_545   S
    N2     O20       4.03468      .   S
    Zr18   O21       1.90182      .   S
    N2     O21       4.76582      .   S
    Zr22   O23       1.92257  1_556   S
    N7     O23       4.79535      .   S
    Zr22   O24       1.66201  1_546   S
    N7     O24       4.24602      .   S
    Zr22   O25       1.87605  1_546   S
    N5     O25       4.58705      .   S
    Zr22   O26       1.92237  1_545   S
    N4     O26       4.79501      .   S
    Zr22   O27       1.66226      .   S
    N4     O27       4.24650      .   S
    Zr22   O28       1.87600      .   S
    N0     O28       4.58693      .   S
    Zr29   O30       1.49105  1_545   S
    N6     O30       4.06151  1_655   S
    Zr29   O31       1.85799  1_455   S
    N3     O31       4.54561      .   S
    Zr29   O32       1.25523      .   S
    N0     O32       3.51457      .   S
    Zr33   O34       1.84488      .   S
    N5     O34       4.55478      .   S
    Zr33   O35       1.90378  1_565   S
    N4     O35       4.76346      .   S
    Zr33   O36       1.84593      .   S
    N4     O36       4.55730      .   S
    Zr33   O37       1.90533  1_556   S
    N5     O37       4.76635      .   S
    Zr38   O39       1.84593      .   S
    N2     O39       4.55729      .   S
    Zr38   O40       1.90377  1_545   S
    N2     O40       4.76344      .   S
    Zr38   O41       1.84394      .   S
    N1     O41       4.55203      .   S
    Zr38   O42       1.90635  1_554   S
    N1     O42       4.76921      .   S
