# CIF file generated by openbabel 2.4.90, see http://openbabel.sf.net
data_I
_chemical_name_common ''
_cell_length_a 14.528
_cell_length_b 15.81
_cell_length_c 18.955
_cell_angle_alpha 90.014
_cell_angle_beta 90.794
_cell_angle_gamma 90.077
_space_group_name_H-M_alt 'P 1'
_space_group_name_Hall 'P 1'
loop_
    _symmetry_equiv_pos_as_xyz
    x,y,z
loop_
    _atom_site_label
    _atom_site_type_symbol
    _atom_site_fract_x
    _atom_site_fract_y
    _atom_site_fract_z
    _atom_site_occupancy
    H0      H    0.94873   0.65020   0.01641   1.000
    H1      H    0.88843   0.38414   0.01442   1.000
    H2      H    0.66367   0.73997   0.24359   1.000
    H3      H    0.39129   0.63306   0.24366   1.000
    H4      H    0.36461   0.69469   0.36301   1.000
    H5      H    0.63702   0.80171   0.36361   1.000
    H6      H    0.05296   0.85278   0.51301   1.000
    H7      H    0.11172   0.11905   0.51679   1.000
    H8      H    0.34160   0.76022   0.73833   1.000
    H9      H    0.61236   0.87042   0.74634   1.000
    H10     H    0.63806   0.80965   0.86660   1.000
    H11     H    0.36712   0.69949   0.85935   1.000
    H12     H    0.05220   0.35332   0.00000   1.000
    H13     H    0.11248   0.61939   0.98542   1.000
    H14     H    0.33791   0.26344   0.75723   1.000
    H15     H    0.61008   0.37071   0.75580   1.000
    H16     H    0.63584   0.30911   0.63632   1.000
    H17     H    0.36362   0.20169   0.63709   1.000
    H18     H    0.94651   0.14994   0.48670   1.000
    H19     H    0.88770   0.88368   0.48294   1.000
    H20     H    0.66028   0.24089   0.26143   1.000
    H21     H    0.38845   0.13298   0.25285   1.000
    H22     H    0.36365   0.19431   0.13272   1.000
    H23     H    0.63554   0.30237   0.14061   1.000
    H24     H    0.55165   0.15023   0.00000   1.000
    H25     H    0.61121   0.88421   0.98477   1.000
    H26     H    0.83626   0.23965   0.75676   1.000
    H27     H    0.10864   0.13335   0.75627   1.000
    H28     H    0.13497   0.19495   0.63684   1.000
    H29     H    0.86257   0.30139   0.63668   1.000
    H30     H    0.44454   0.35324   0.48710   1.000
    H31     H    0.38683   0.61959   0.48291   1.000
    H32     H    0.15820   0.26368   0.26191   1.000
    H33     H    0.88616   0.37049   0.25228   1.000
    H34     H    0.86241   0.30918   0.13195   1.000
    H35     H    0.13452   0.20223   0.14087   1.000
    H36     H    0.44738   0.85321   0.01568   1.000
    H37     H    0.38787   0.11926   0.01475   1.000
    H38     H    0.16131   0.76426   0.24266   1.000
    H39     H    0.88819   0.86890   0.24381   1.000
    H40     H    0.86270   0.80687   0.36319   1.000
    H41     H    0.13588   0.70220   0.36274   1.000
    H42     H    0.55213   0.65042   0.51286   1.000
    H43     H    0.60987   0.38412   0.51697   1.000
    H44     H    0.83919   0.73998   0.73893   1.000
    H45     H    0.11132   0.63327   0.74703   1.000
    H46     H    0.13623   0.69456   0.86722   1.000
    H47     H    0.86405   0.80140   0.85982   1.000
    C48     C    0.90904   0.51903   0.01755   1.000
    C49     C    0.97216   0.58545   0.00913   1.000
    C50     C    0.93797   0.43521   0.00818   1.000
    C51     C    0.52856   0.68388   0.23627   1.000
    C52     C    0.59864   0.73029   0.27033   1.000
    C53     C    0.44466   0.66995   0.27030   1.000
    C54     C    0.49889   0.75270   0.36982   1.000
    C55     C    0.42985   0.70422   0.33660   1.000
    C56     C    0.58392   0.76447   0.33688   1.000
    C57     C    0.09184   0.98408   0.51689   1.000
    C58     C    0.02882   0.91758   0.50714   1.000
    C59     C    0.06218   0.06799   0.50945   1.000
    C60     C    0.47590   0.81797   0.73493   1.000
    C61     C    0.40605   0.77079   0.76701   1.000
    C62     C    0.55910   0.83297   0.77141   1.000
    C63     C    0.50443   0.75019   0.86966   1.000
    C64     C    0.57336   0.79919   0.83829   1.000
    C65     C    0.42016   0.73717   0.83413   1.000
    C66     C    0.09192   0.48449   0.98241   1.000
    C67     C    0.02879   0.41808   0.00000   1.000
    C68     C    0.06296   0.56832   0.99171   1.000
    C69     C    0.47301   0.31970   0.76388   1.000
    C70     C    0.40270   0.27320   0.73018   1.000
    C71     C    0.55657   0.33373   0.72943   1.000
    C72     C    0.50162   0.25088   0.63018   1.000
    C73     C    0.57086   0.29946   0.66305   1.000
    C74     C    0.41690   0.23900   0.66355   1.000
    C75     C    0.90759   0.01867   0.48285   1.000
    C76     C    0.97064   0.08514   0.49256   1.000
    C77     C    0.93725   0.93475   0.49025   1.000
    C78     C    0.52539   0.18426   0.26460   1.000
    C79     C    0.59577   0.23095   0.23267   1.000
    C80     C    0.44215   0.17006   0.22795   1.000
    C81     C    0.49778   0.25282   0.12996   1.000
    C82     C    0.42838   0.20418   0.16113   1.000
    C83     C    0.58210   0.26498   0.16563   1.000
    C84     C    0.59096   0.01906   0.98220   1.000
    C85     C    0.52805   0.08545   0.00000   1.000
    C86     C    0.56180   0.93522   0.99123   1.000
    C87     C    0.97135   0.18384   0.76382   1.000
    C88     C    0.90119   0.23010   0.72989   1.000
    C89     C    0.05520   0.17008   0.72970   1.000
    C90     C    0.00062   0.25259   0.63025   1.000
    C91     C    0.06981   0.20432   0.66336   1.000
    C92     C    0.91571   0.26426   0.66332   1.000
    C93     C    0.40609   0.48454   0.48298   1.000
    C94     C    0.46891   0.41805   0.49281   1.000
    C95     C    0.43615   0.56847   0.49028   1.000
    C96     C    0.02311   0.31967   0.26450   1.000
    C97     C    0.09390   0.27337   0.23285   1.000
    C98     C    0.94010   0.33366   0.22754   1.000
    C99     C    0.00000   0.25121   0.12978   1.000
    C100    C    0.92694   0.29956   0.16064   1.000
    C101    C    0.08084   0.23937   0.16573   1.000
    C102    C    0.40810   0.98440   0.01733   1.000
    C103    C    0.47099   0.91800   0.00861   1.000
    C104    C    0.43726   0.06823   0.00824   1.000
    C105    C    0.02582   0.81927   0.23591   1.000
    C106    C    0.09639   0.77336   0.26966   1.000
    C107    C    0.94197   0.83242   0.27021   1.000
    C108    C    0.00000   0.75009   0.36950   1.000
    C109    C    0.92783   0.79794   0.33654   1.000
    C110    C    0.08235   0.73900   0.33624   1.000
    C111    C    0.59059   0.51914   0.51690   1.000
    C112    C    0.52777   0.58562   0.50709   1.000
    C113    C    0.56053   0.43521   0.50960   1.000
    C114    C    0.97424   0.68401   0.73551   1.000
    C115    C    0.90379   0.73030   0.76760   1.000
    C116    C    0.05760   0.67008   0.77206   1.000
    C117    C    0.00196   0.75252   0.87018   1.000
    C118    C    0.07143   0.70418   0.83890   1.000
    C119    C    0.91752   0.76431   0.83465   1.000
loop_
    _geom_bond_atom_site_label_1
    _geom_bond_atom_site_label_2
    _geom_bond_distance
    _geom_bond_site_symmetry_2
    _ccdc_geom_bond_type
    H12    C67       1.07929      .   S
    H24    C85       1.07968      .   S
    C85    C104      1.35766      .   S
    C85    C84       1.43590  1_554   S
    C67    C50       1.35820  1_455   S
    C67    C66       1.43561  1_554   S
    C50    H1        1.08843      .   S
    C50    C48       1.40279      .   S
    C104   H37       1.08845      .   S
    C104   C102      1.40222  1_545   S
    C103   H36       1.08868      .   S
    C103   C102      1.40383      .   S
    C103   C86       1.39079  1_554   S
    C49    H0        1.08864      .   S
    C49    C48       1.40372      .   S
    C49    C68       1.39122  1_654   S
    C99    C100      1.43957  1_455   S
    C99    C101      1.36278      .   S
    C81    C82       1.40413      .   S
    C81    C83       1.40399      .   S
    H34    C100      1.08812      .   S
    H22    C82       1.08824      .   S
    H23    C83       1.08920      .   S
    H35    C101      1.08921      .   S
    C100   C98       1.38846      .   S
    C82    C80       1.38880      .   S
    C83    C79       1.39176      .   S
    C101   C97       1.39145      .   S
    C98    H33       1.08827      .   S
    C98    C96       1.40413  1_655   S
    C80    H21       1.08825      .   S
    C80    C78       1.40411      .   S
    C79    H20       1.08892      .   S
    C79    C78       1.40431      .   S
    C97    H32       1.08883      .   S
    C97    C96       1.40437      .   S
    C105   C106      1.40409      .   S
    C105   C107      1.40440  1_455   S
    C51    C53       1.40413      .   S
    C51    C52       1.40401      .   S
    H38    C106      1.08889      .   S
    H2     C52       1.08897      .   S
    H3     C53       1.08812      .   S
    H39    C107      1.08816      .   S
    C106   C110      1.39153      .   S
    C107   C109      1.38815      .   S
    C53    C55       1.38823      .   S
    C52    C56       1.39157      .   S
    C110   H41       1.08919      .   S
    C110   C108      1.37153      .   S
    C109   H40       1.08818      .   S
    C109   C108      1.43048  1_655   S
    C55    H4        1.08820      .   S
    C55    C54       1.40365      .   S
    C56    H5        1.08917      .   S
    C56    C54       1.40399      .   S
    C75    C77       1.40204  1_545   S
    C75    C76       1.40364      .   S
    H31    C95       1.08852      .   S
    H19    C77       1.08856      .   S
    C93    C95       1.40259      .   S
    C93    C94       1.40377      .   S
    H18    C76       1.08844      .   S
    H30    C94       1.08856      .   S
    C77    C58       1.39102  1_655   S
    C95    C112      1.39064      .   S
    C76    C59       1.39062  1_655   S
    C94    C113      1.39061      .   S
    C112   H42       1.08848      .   S
    C112   C111      1.40364      .   S
    C58    H6        1.08852      .   S
    C58    C57       1.40366      .   S
    C59    H7        1.08850      .   S
    C59    C57       1.40197  1_545   S
    C113   C111      1.40259      .   S
    C113   H43       1.08851      .   S
    C72    C73       1.40367      .   S
    C72    C74       1.40396      .   S
    C90    C92       1.40378  1_455   S
    C90    C91       1.40407      .   S
    H16    C73       1.08813      .   S
    H29    C92       1.08916      .   S
    H28    C91       1.08817      .   S
    H17    C74       1.08923      .   S
    C73    C71       1.38804      .   S
    C92    C88       1.39140      .   S
    C91    C89       1.38808      .   S
    C74    C70       1.39171      .   S
    C71    H15       1.08807      .   S
    C71    C69       1.40385      .   S
    C89    H27       1.08814      .   S
    C89    C87       1.40436  1_455   S
    C88    H26       1.08890      .   S
    C88    C87       1.40402      .   S
    C70    H14       1.08898      .   S
    C70    C69       1.40420      .   S
    C60    C61       1.40408      .   S
    C60    C62       1.40409      .   S
    C114   C115      1.40435      .   S
    C114   C116      1.40446  1_655   S
    H8     C61       1.08890      .   S
    H44    C115      1.08891      .   S
    H9     C62       1.08822      .   S
    H45    C116      1.08822      .   S
    C61    C65       1.39156      .   S
    C115   C119      1.39172      .   S
    C62    C64       1.38865      .   S
    C116   C118      1.38871      .   S
    C65    H11       1.08917      .   S
    C65    C63       1.40397      .   S
    C119   H47       1.08919      .   S
    C119   C117      1.40390  1_655   S
    C64    H10       1.08826      .   S
    C64    C63       1.40402      .   S
    C118   H46       1.08821      .   S
    C118   C117      1.40443      .   S
    C84    C86       1.40225  1_545   S
    C66    C68       1.40280      .   S
    H25    C86       1.08846      .   S
    H13    C68       1.08845      .   S
