# CIF file generated by openbabel 2.4.90, see http://openbabel.sf.net
data_I
_chemical_name_common ''
_cell_length_a 14.528
_cell_length_b 15.81
_cell_length_c 18.955
_cell_angle_alpha 90.014
_cell_angle_beta 90.794
_cell_angle_gamma 90.077
_space_group_name_H-M_alt 'P 1'
_space_group_name_Hall 'P 1'
loop_
    _symmetry_equiv_pos_as_xyz
    x,y,z
loop_
    _atom_site_label
    _atom_site_type_symbol
    _atom_site_fract_x
    _atom_site_fract_y
    _atom_site_fract_z
    _atom_site_occupancy
    C0      C    0.81074   0.53682   0.03453   1.000
    C1      C    0.54109   0.65164   0.16310   1.000
    C2      C    0.47925   0.79569   0.43803   1.000
    C3      C    0.19087   0.96629   0.53325   1.000
    C4      C    0.46341   0.85024   0.66148   1.000
    C5      C    0.52349   0.70802   0.93872   1.000
    C6      C    0.19029   0.46676   0.96549   1.000
    C7      C    0.46115   0.35198   0.83711   1.000
    C8      C    0.52084   0.20794   0.56189   1.000
    C9      C    0.80859   0.03677   0.46669   1.000
    C10     C    0.53732   0.15195   0.33811   1.000
    C11     C    0.47910   0.29550   0.06101   1.000
    C12     C    0.68934   0.03688   0.96541   1.000
    C13     C    0.95890   0.15159   0.83696   1.000
    C14     C    0.02016   0.29547   0.56202   1.000
    C15     C    0.30696   0.46670   0.46672   1.000
    C16     C    0.03446   0.35180   0.33808   1.000
    C17     C    0.97840   0.20833   0.06089   1.000
    C18     C    0.30976   0.96667   0.03444   1.000
    C19     C    0.03792   0.85189   0.16282   1.000
    C20     C    0.97857   0.70723   0.43787   1.000
    C21     C    0.68975   0.53692   0.53321   1.000
    C22     C    0.96235   0.65185   0.66194   1.000
    C23     C    0.02080   0.79537   0.93906   1.000
