# CIF file generated by openbabel 2.4.90, see http://openbabel.sf.net
data_I
_chemical_name_common ''
_cell_length_a 14.528
_cell_length_b 15.81
_cell_length_c 18.955
_cell_angle_alpha 90.014
_cell_angle_beta 90.794
_cell_angle_gamma 90.077
_space_group_name_H-M_alt 'P 1'
_space_group_name_Hall 'P 1'
loop_
    _symmetry_equiv_pos_as_xyz
    x,y,z
loop_
    _atom_site_label
    _atom_site_type_symbol
    _atom_site_fract_x
    _atom_site_fract_y
    _atom_site_fract_z
    _atom_site_occupancy
    N0      N    0.98773   0.71746   0.80319   1.000
    N1      N    0.01224   0.78543   0.30304   1.000
    N2      N    0.48981   0.78481   0.80260   1.000
    N3      N    0.98563   0.21745   0.69669   1.000
    N4      N    0.51195   0.21778   0.19696   1.000
    N5      N    0.01062   0.28624   0.19680   1.000
    N6      N    0.99972   0.00137   0.49986   1.000
    N7      N    0.00047   0.50176   0.00252   1.000
    N8      N    0.48691   0.28609   0.69667   1.000
    N9      N    0.51411   0.71749   0.30341   1.000
    N10     N    0.49834   0.50184   0.49995   1.000
    N11     N    0.49953   0.00173   0.00228   1.000
    Zr12    Zr   0.50110   0.50181   0.00000   1.000
    O13     O    0.50065   0.37389   0.07311   1.000
    O14     O    0.48905   0.40639   0.87429   1.000
    O15     O    0.28594   0.49525   0.99412   1.000
    O16     O    0.51279   0.59722   0.12577   1.000
    O17     O    0.50149   0.62938   0.92670   1.000
    O18     O    0.71564   0.50833   0.00714   1.000
    Zr19    Zr   0.99906   0.00268   0.99998   1.000
    O20     O    0.01056   0.90659   0.12559   1.000
    O21     O    0.98722   0.09763   0.87426   1.000
    O22     O    0.21415   0.99566   0.00703   1.000
    O23     O    0.78445   0.00877   0.99401   1.000
    O24     O    0.99949   0.13034   0.07302   1.000
    O25     O    0.99931   0.87419   0.92694   1.000
    Zr26    Zr   0.49997   0.00245   0.49995   1.000
    O27     O    0.71444   0.00850   0.49363   1.000
    O28     O    0.51081   0.09770   0.37455   1.000
    O29     O    0.28525   0.99536   0.50621   1.000
    O30     O    0.50078   0.87415   0.42681   1.000
    O31     O    0.49952   0.13010   0.57315   1.000
    O32     O    0.48985   0.90595   0.62518   1.000
    Zr33    Zr   0.99880   0.50169   0.49999   1.000
    O34     O    0.99978   0.62937   0.42668   1.000
    O35     O    0.98841   0.59719   0.62547   1.000
    O36     O    0.00925   0.40634   0.37452   1.000
    O37     O    0.21312   0.49521   0.49369   1.000
    O38     O    0.78403   0.50831   0.50625   1.000
    O39     O    0.99841   0.37372   0.57320   1.000
loop_
    _geom_bond_atom_site_label_1
    _geom_bond_atom_site_label_2
    _geom_bond_distance
    _geom_bond_site_symmetry_2
    _ccdc_geom_bond_type
    Zr12   O13       2.45198      .   S
    N4     O13       3.40915      .   S
    Zr12   O14       2.82317  1_554   S
    N8     O14       3.86614      .   S
    Zr12   O15       3.12785  1_554   S
    N7     O15       4.15408  1_554   S
    Zr12   O16       2.82385      .   S
    N9     O16       3.86630      .   S
    Zr12   O17       2.44953  1_554   S
    N2     O17       3.40480      .   S
    Zr12   O18       3.11944      .   S
    N7     O18       4.14153  1_455   S
    Zr19   O20       2.82777  1_646   S
    N1     O20       3.87106      .   S
    Zr19   O21       2.82011      .   S
    N3     O21       3.86252      .   S
    Zr19   O22       3.12784  1_646   S
    N11    O22       4.14922  1_545   S
    Zr19   O23       3.11998      .   S
    N11    O23       4.14587  1_554   S
    Zr19   O24       2.44726  1_556   S
    N5     O24       3.40465  1_455   S
    Zr19   O25       2.45807  1_545   S
    N0     O25       3.41408      .   S
    Zr26   O27       3.12113      .   S
    N6     O27       4.14637      .   S
    Zr26   O28       2.82016      .   S
    N4     O28       3.86541      .   S
    Zr26   O29       3.12511  1_545   S
    N6     O29       4.14947  1_645   S
    Zr26   O30       2.45682  1_545   S
    N9     O30       3.41375      .   S
    Zr26   O31       2.44894      .   S
    N8     O31       3.40704      .   S
    Zr26   O32       2.82745  1_545   S
    N2     O32       3.87075      .   S
    Zr33   O34       2.45108      .   S
    N1     O34       3.40965  1_455   S
    Zr33   O35       2.82290      .   S
    N0     O35       3.86792      .   S
    Zr33   O36       2.82150  1_655   S
    N5     O36       3.86675      .   S
    Zr33   O37       3.11934  1_655   S
    N10    O37       4.14494      .   S
    Zr33   O38       3.12602      .   S
    N10    O38       4.15166      .   S
    Zr33   O39       2.45378      .   S
    N3     O39       3.41034      .   S
