# CIF file generated by openbabel 2.4.90, see http://openbabel.sf.net
data_I
_chemical_name_common ''
_cell_length_a 14.528
_cell_length_b 15.81
_cell_length_c 18.955
_cell_angle_alpha 90.014
_cell_angle_beta 90.794
_cell_angle_gamma 90.077
_space_group_name_H-M_alt 'P 1'
_space_group_name_Hall 'P 1'
loop_
    _symmetry_equiv_pos_as_xyz
    x,y,z
loop_
    _atom_site_label
    _atom_site_type_symbol
    _atom_site_fract_x
    _atom_site_fract_y
    _atom_site_fract_z
    _atom_site_occupancy
    Zr0     Zr   0.47223   0.57353   0.03946   1.000
    Zr1     Zr   0.65693   0.64040   0.03439   1.000
    Zr2     Zr   0.53105   0.93003   0.53981   1.000
    Zr3     Zr   0.34452   0.86297   0.53115   1.000
    Zr4     Zr   0.53108   0.42988   0.96049   1.000
    Zr5     Zr   0.34403   0.36349   0.96577   1.000
    Zr6     Zr   0.46880   0.07360   0.46016   1.000
    Zr7     Zr   0.65552   0.14053   0.46889   1.000
    Zr8     Zr   0.02804   0.07364   0.96063   1.000
    Zr9     Zr   0.84335   0.14034   0.96567   1.000
    Zr10    Zr   0.96806   0.43008   0.46014   1.000
    Zr11    Zr   0.15288   0.36317   0.46877   1.000
    Zr12    Zr   0.96887   0.92990   0.03948   1.000
    Zr13    Zr   0.15583   0.86352   0.03434   1.000
    Zr14    Zr   0.03075   0.57374   0.53987   1.000
    Zr15    Zr   0.84389   0.64005   0.53127   1.000
    Zr16    Zr   0.65282   0.49546   0.03483   1.000
    Zr17    Zr   0.35016   0.00787   0.53475   1.000
    Zr18    Zr   0.35047   0.50840   0.96510   1.000
    Zr19    Zr   0.64930   0.99579   0.46520   1.000
    Zr20    Zr   0.84731   0.99552   0.96517   1.000
    Zr21    Zr   0.14891   0.50794   0.46514   1.000
    Zr22    Zr   0.14951   0.00841   0.03496   1.000
    Zr23    Zr   0.84943   0.49531   0.53486   1.000
    Zr24    Zr   0.81074   0.53682   0.03453   1.000
    Zr25    Zr   0.54109   0.65164   0.16310   1.000
    Zr26    Zr   0.47925   0.79569   0.43803   1.000
    Zr27    Zr   0.19087   0.96629   0.53325   1.000
    Zr28    Zr   0.46341   0.85024   0.66148   1.000
    Zr29    Zr   0.52349   0.70802   0.93872   1.000
    Zr30    Zr   0.19029   0.46676   0.96549   1.000
    Zr31    Zr   0.46115   0.35198   0.83711   1.000
    Zr32    Zr   0.52084   0.20794   0.56189   1.000
    Zr33    Zr   0.80859   0.03677   0.46669   1.000
    Zr34    Zr   0.53732   0.15195   0.33811   1.000
    Zr35    Zr   0.47910   0.29550   0.06101   1.000
    Zr36    Zr   0.68934   0.03688   0.96541   1.000
    Zr37    Zr   0.95890   0.15159   0.83696   1.000
    Zr38    Zr   0.02016   0.29547   0.56202   1.000
    Zr39    Zr   0.30696   0.46670   0.46672   1.000
    Zr40    Zr   0.03446   0.35180   0.33808   1.000
    Zr41    Zr   0.97840   0.20833   0.06089   1.000
    Zr42    Zr   0.30976   0.96667   0.03444   1.000
    Zr43    Zr   0.03792   0.85189   0.16282   1.000
    Zr44    Zr   0.97857   0.70723   0.43787   1.000
    Zr45    Zr   0.68975   0.53692   0.53321   1.000
    Zr46    Zr   0.96235   0.65185   0.66194   1.000
    Zr47    Zr   0.02080   0.79537   0.93906   1.000
    Zr48    Zr   0.47247   0.61104   0.13584   1.000
    Zr49    Zr   0.61679   0.66687   0.13250   1.000
    Zr50    Zr   0.78588   0.61559   0.02799   1.000
    Zr51    Zr   0.75820   0.47731   0.05242   1.000
    Zr52    Zr   0.54298   0.84043   0.46620   1.000
    Zr53    Zr   0.39818   0.78576   0.46271   1.000
    Zr54    Zr   0.59723   0.52217   0.00925   1.000
    Zr55    Zr   0.53129   0.89238   0.63612   1.000
    Zr56    Zr   0.38831   0.83367   0.62896   1.000
    Zr57    Zr   0.21552   0.88769   0.52498   1.000
    Zr58    Zr   0.24386   0.02543   0.55222   1.000
    Zr59    Zr   0.45983   0.66337   0.96571   1.000
    Zr60    Zr   0.60434   0.71843   0.96544   1.000
    Zr61    Zr   0.40456   0.98130   0.50906   1.000
    Zr62    Zr   0.53011   0.39245   0.86409   1.000
    Zr63    Zr   0.38563   0.33688   0.86795   1.000
    Zr64    Zr   0.21507   0.38789   0.97209   1.000
    Zr65    Zr   0.24282   0.52618   0.94763   1.000
    Zr66    Zr   0.45700   0.16326   0.53381   1.000
    Zr67    Zr   0.60182   0.21792   0.53703   1.000
    Zr68    Zr   0.40555   0.48141   0.99063   1.000
    Zr69    Zr   0.46857   0.11131   0.36377   1.000
    Zr70    Zr   0.61291   0.16710   0.37045   1.000
    Zr71    Zr   0.78440   0.11546   0.47513   1.000
    Zr72    Zr   0.75517   0.00000   0.44777   1.000
    Zr73    Zr   0.54303   0.34014   0.03433   1.000
    Zr74    Zr   0.39830   0.28541   0.03416   1.000
    Zr75    Zr   0.59492   0.02236   0.49098   1.000
    Zr76    Zr   0.02750   0.11105   0.86419   1.000
    Zr77    Zr   0.88323   0.16677   0.86755   1.000
    Zr78    Zr   0.71437   0.11567   0.97208   1.000
    Zr79    Zr   0.74179   0.00000   0.94752   1.000
    Zr80    Zr   0.95665   0.34029   0.53385   1.000
    Zr81    Zr   0.10117   0.28541   0.53726   1.000
    Zr82    Zr   0.90293   0.02219   0.99078   1.000
    Zr83    Zr   0.96564   0.39228   0.36370   1.000
    Zr84    Zr   0.10983   0.33657   0.37060   1.000
    Zr85    Zr   0.28196   0.38820   0.47504   1.000
    Zr86    Zr   0.25410   0.52584   0.44770   1.000
    Zr87    Zr   0.04226   0.16355   0.03436   1.000
    Zr88    Zr   0.89772   0.21838   0.03390   1.000
    Zr89    Zr   0.09409   0.48152   0.49084   1.000
    Zr90    Zr   0.96910   0.89245   0.13586   1.000
    Zr91    Zr   0.11352   0.83700   0.13207   1.000
    Zr92    Zr   0.28482   0.88775   0.02798   1.000
    Zr93    Zr   0.25742   0.02607   0.05239   1.000
    Zr94    Zr   0.04276   0.66325   0.46614   1.000
    Zr95    Zr   0.89750   0.71658   0.46263   1.000
    Zr96    Zr   0.09446   0.98141   0.00936   1.000
    Zr97    Zr   0.03113   0.61135   0.63624   1.000
    Zr98    Zr   0.88687   0.66705   0.62956   1.000
    Zr99    Zr   0.71474   0.61547   0.52485   1.000
    Zr100   Zr   0.74252   0.47783   0.55229   1.000
    Zr101   Zr   0.95695   0.84003   0.96570   1.000
    Zr102   Zr   0.10159   0.78537   0.96589   1.000
    Zr103   Zr   0.90376   0.52205   0.50919   1.000
    O104    O    0.62503   0.50881   0.02204   1.000
    O105    O    0.56416   0.47602   0.98487   1.000
    O106    O    0.12199   0.99491   0.02216   1.000
    O107    O    0.06125   0.02752   0.98499   1.000
    O108    O    0.22032   0.87564   0.03116   1.000
    O109    O    0.29729   0.92721   0.03121   1.000
    O110    O    0.72140   0.62799   0.03119   1.000
    O111    O    0.79831   0.57621   0.03126   1.000
    O112    O    0.93806   0.21335   0.04739   1.000
    O113    O    0.87053   0.17936   0.99978   1.000
    O114    O    0.43870   0.29045   0.04758   1.000
    O115    O    0.37116   0.32445   0.99996   1.000
    O116    O    0.51106   0.31782   0.04767   1.000
    O117    O    0.53705   0.38501   0.99741   1.000
    O118    O    0.13467   0.85026   0.08321   1.000
    O119    O    0.12871   0.82445   0.00012   1.000
    O120    O    0.01033   0.18594   0.04763   1.000
    O121    O    0.03515   0.11860   0.99750   1.000
    O122    O    0.63686   0.65363   0.08345   1.000
    O123    O    0.63063   0.67941   0.99991   1.000
    O124    O    0.28359   0.99637   0.04341   1.000
    O125    O    0.78447   0.50706   0.04347   1.000
    O126    O    0.47235   0.59228   0.08765   1.000
    O127    O    0.46603   0.61845   0.00259   1.000
    O128    O    0.43889   0.52747   0.01505   1.000
    O129    O    0.96899   0.91118   0.08767   1.000
    O130    O    0.96291   0.88497   0.00259   1.000
    O131    O    0.93590   0.97605   0.01513   1.000
    O132    O    0.07572   0.84445   0.14745   1.000
    O133    O    0.57894   0.65926   0.14780   1.000
    O134    O    0.50678   0.63134   0.14947   1.000
    O135    O    0.00351   0.87217   0.14934   1.000
    O136    O    0.00005   0.37204   0.35089   1.000
    O137    O    0.07214   0.34419   0.35434   1.000
    O138    O    0.50294   0.13163   0.35094   1.000
    O139    O    0.57512   0.15952   0.35428   1.000
    O140    O    0.96685   0.41118   0.41192   1.000
    O141    O    0.46868   0.09245   0.41197   1.000
    O142    O    0.63421   0.15382   0.41967   1.000
    O143    O    0.13136   0.34987   0.41968   1.000
    O144    O    0.93804   0.71191   0.45025   1.000
    O145    O    0.01066   0.68524   0.45200   1.000
    O146    O    0.43872   0.79073   0.45037   1.000
    O147    O    0.51111   0.81806   0.45212   1.000
    O148    O    0.28053   0.49627   0.45721   1.000
    O149    O    0.78188   0.01838   0.45723   1.000
    O150    O    0.93591   0.47606   0.48467   1.000
    O151    O    0.96235   0.38519   0.49700   1.000
    O152    O    0.43668   0.02745   0.48461   1.000
    O153    O    0.46290   0.11843   0.49699   1.000
    O154    O    0.87070   0.67832   0.49695   1.000
    O155    O    0.37135   0.82437   0.49693   1.000
    O156    O    0.12150   0.49473   0.47799   1.000
    O157    O    0.62211   0.00908   0.47809   1.000
    O158    O    0.03675   0.61850   0.50300   1.000
    O159    O    0.53702   0.88523   0.50301   1.000
    O160    O    0.79650   0.07611   0.47091   1.000
    O161    O    0.29446   0.42745   0.47088   1.000
    O162    O    0.21742   0.37569   0.47191   1.000
    O163    O    0.12703   0.32429   0.50301   1.000
    O164    O    0.71996   0.12799   0.47201   1.000
    O165    O    0.62867   0.17923   0.50296   1.000
    O166    O    0.06242   0.52763   0.51535   1.000
    O167    O    0.56298   0.97620   0.51540   1.000
    O168    O    0.37736   0.99458   0.52190   1.000
    O169    O    0.87660   0.50868   0.52202   1.000
    O170    O    0.77931   0.62776   0.52806   1.000
    O171    O    0.70225   0.57620   0.52903   1.000
    O172    O    0.28002   0.87533   0.52807   1.000
    O173    O    0.20319   0.92699   0.52912   1.000
    O174    O    0.36641   0.84832   0.58005   1.000
    O175    O    0.86538   0.65355   0.58041   1.000
    O176    O    0.71614   0.50737   0.54275   1.000
    O177    O    0.21736   0.99586   0.54273   1.000
    O178    O    0.48892   0.18560   0.54785   1.000
    O179    O    0.98840   0.31788   0.54794   1.000
    O180    O    0.56133   0.21293   0.54946   1.000
    O181    O    0.06067   0.29044   0.54964   1.000
    O182    O    0.53117   0.91121   0.58796   1.000
    O183    O    0.03094   0.59255   0.58806   1.000
    O184    O    0.42586   0.84196   0.64522   1.000
    O185    O    0.92461   0.65945   0.64575   1.000
    O186    O    0.49735   0.87131   0.64880   1.000
    O187    O    0.99674   0.63160   0.64909   1.000
    O188    O    0.99320   0.13132   0.85058   1.000
    O189    O    0.92107   0.15918   0.85225   1.000
    O190    O    0.49563   0.37221   0.85060   1.000
    O191    O    0.42339   0.34443   0.85253   1.000
    O192    O    0.53060   0.41116   0.91229   1.000
    O193    O    0.02777   0.09234   0.91241   1.000
    O194    O    0.86329   0.15355   0.91661   1.000
    O195    O    0.36483   0.35019   0.91686   1.000
    O196    O    0.56391   0.71323   0.95208   1.000
    O197    O    0.49166   0.68569   0.95221   1.000
    O198    O    0.98887   0.81770   0.95238   1.000
    O199    O    0.06119   0.79037   0.95248   1.000
    O200    O    0.71557   0.01844   0.95646   1.000
    O201    O    0.21655   0.49647   0.95656   1.000
    O202    O    0.37801   0.49491   0.97786   1.000
    O203    O    0.87512   0.00886   0.97798   1.000
    O204    O    0.70185   0.07628   0.96874   1.000
    O205    O    0.20268   0.42733   0.96879   1.000
    O206    O    0.77886   0.12800   0.96887   1.000
    O207    O    0.27955   0.37569   0.96893   1.000
    O208    O    0.53473   0.54785   0.02436   1.000
    O209    O    0.62708   0.58128   0.02182   1.000
    O210    O    0.46780   0.95566   0.52443   1.000
    O211    O    0.37454   0.92213   0.52010   1.000
    O212    O    0.46832   0.45565   0.97556   1.000
    O213    O    0.37479   0.42245   0.97820   1.000
    O214    O    0.53186   0.04798   0.47557   1.000
    O215    O    0.62522   0.08145   0.47994   1.000
    O216    O    0.96548   0.04792   0.97571   1.000
    O217    O    0.87314   0.08126   0.97823   1.000
    O218    O    0.03108   0.45580   0.47549   1.000
    O219    O    0.12349   0.42234   0.47980   1.000
    O220    O    0.03167   0.95566   0.02442   1.000
    O221    O    0.12515   0.92247   0.02185   1.000
    O222    O    0.96725   0.54790   0.52453   1.000
    O223    O    0.87382   0.58105   0.52023   1.000
    N224    N    0.98773   0.71746   0.80319   1.000
    O225    O    0.99956   0.74570   0.85390   1.000
    O226    O    0.97802   0.69270   0.75096   1.000
    N227    N    0.01224   0.78543   0.30304   1.000
    O228    O    0.02205   0.81051   0.25120   1.000
    O229    O    0.00076   0.75705   0.35336   1.000
    N230    N    0.48981   0.78481   0.80260   1.000
    O231    O    0.50188   0.75696   0.85340   1.000
    O232    O    0.47973   0.80946   0.75040   1.000
    N233    N    0.98563   0.21745   0.69669   1.000
    O234    O    0.99801   0.24574   0.64641   1.000
    O235    O    0.97538   0.19259   0.74854   1.000
    N236    N    0.51195   0.21778   0.19696   1.000
    O237    O    0.52165   0.19294   0.24916   1.000
    O238    O    0.50019   0.24597   0.14622   1.000
    N239    N    0.01062   0.28624   0.19680   1.000
    O240    O    0.99991   0.25801   0.14607   1.000
    O241    O    0.01970   0.31099   0.24905   1.000
    N242    N    0.99972   0.00137   0.49986   1.000
    O243    O    0.07054   0.98827   0.51247   1.000
    O244    O    0.92891   0.01454   0.48731   1.000
    N245    N    0.00047   0.50176   0.00252   1.000
    O246    O    0.07078   0.48869   0.98824   1.000
    O247    O    0.93018   0.51484   0.01428   1.000
    N248    N    0.48691   0.28609   0.69667   1.000
    O249    O    0.49907   0.25775   0.64636   1.000
    O250    O    0.47699   0.31097   0.74858   1.000
    N251    N    0.51411   0.71749   0.30341   1.000
    O252    O    0.52447   0.69263   0.25155   1.000
    O253    O    0.50159   0.74585   0.35367   1.000
    N254    N    0.49834   0.50184   0.49995   1.000
    O255    O    0.42744   0.48873   0.48740   1.000
    O256    O    0.56926   0.51493   0.51250   1.000
    N257    N    0.49953   0.00173   0.00228   1.000
    O258    O    0.56984   0.01485   0.98804   1.000
    O259    O    0.42923   0.98863   0.01408   1.000
loop_
    _geom_bond_atom_site_label_1
    _geom_bond_atom_site_label_2
    _geom_bond_distance
    _geom_bond_site_symmetry_2
    _ccdc_geom_bond_type
    Zr54   O104      0.51375      .   S
    Zr16   O104      0.51375      .   S
    Zr54   O105      0.98458  1_554   S
    Zr4    O105      0.98458      .   S
    Zr96   O106      0.51122      .   S
    Zr22   O106      0.51122  1_545   S
    Zr96   O107      0.98622  1_564   S
    Zr8    O107      0.98622      .   S
    Zr92   O108      0.95886      .   S
    Zr13   O108      0.95886      .   S
    Zr92   O109      0.65199      .   S
    Zr42   O109      0.65199      .   S
    Zr50   O110      0.96000      .   S
    Zr1    O110      0.96000      .   S
    Zr50   O111      0.65130      .   S
    Zr24   O111      0.65130      .   S
    Zr88   O112      0.64130      .   S
    Zr41   O112      0.64130      .   S
    Zr88   O113      0.97302  1_554   S
    Zr9    O113      0.97302      .   S
    Zr74   O114      0.64137      .   S
    Zr35   O114      0.64137      .   S
    Zr74   O115      0.97484  1_554   S
    Zr5    O115      0.97484      .   S
    Zr73   O116      0.63794      .   S
    Zr35   O116      0.63794      .   S
    Zr73   O117      0.99960  1_554   S
    Zr4    O117      0.99960      .   S
    Zr13   O118      1.00205      .   S
    Zr91   O118      1.00205      .   S
    Zr13   O119      0.97457      .   S
    Zr102  O119      0.97457  1_556   S
    Zr87   O120      0.63815      .   S
    Zr41   O120      0.63815  1_655   S
    Zr87   O121      1.00089  1_554   S
    Zr8    O121      1.00089      .   S
    Zr1    O122      1.00048      .   S
    Zr49   O122      1.00048      .   S
    Zr1    O123      0.97336  1_554   S
    Zr60   O123      0.97336      .   S
    Zr42   O124      0.62947      .   S
    Zr93   O124      0.62947  1_545   S
    Zr24   O125      0.63017      .   S
    Zr51   O125      0.63017      .   S
    Zr0    O126      0.96021      .   S
    Zr48   O126      0.96021      .   S
    Zr0    O127      0.99983      .   S
    Zr59   O127      0.99983  1_556   S
    Zr0    O128      0.98578      .   S
    Zr68   O128      0.98578  1_556   S
    Zr12   O129      0.96028      .   S
    Zr90   O129      0.96028      .   S
    Zr12   O130      0.99956      .   S
    Zr101  O130      0.99956  1_556   S
    Zr12   O131      0.98473      .   S
    Zr82   O131      0.98473  1_546   S
    Zr91   O132      0.63638      .   S
    Zr43   O132      0.63638      .   S
    Zr49   O133      0.63659      .   S
    Zr25   O133      0.63659      .   S
    Zr48   O134      0.64364      .   S
    Zr25   O134      0.64364      .   S
    Zr90   O135      0.64407  1_655   S
    Zr43   O135      0.64407      .   S
    Zr40   O136      0.64423      .   S
    Zr83   O136      0.64423  1_655   S
    Zr40   O137      0.63624      .   S
    Zr84   O137      0.63624      .   S
    Zr34   O138      0.64399      .   S
    Zr69   O138      0.64399      .   S
    Zr34   O139      0.63633      .   S
    Zr70   O139      0.63633      .   S
    Zr83   O140      0.96146      .   S
    Zr10   O140      0.96146      .   S
    Zr69   O141      0.96091      .   S
    Zr6    O141      0.96091      .   S
    Zr70   O142      1.00133      .   S
    Zr7    O142      1.00133      .   S
    Zr84   O143      0.99971      .   S
    Zr11   O143      0.99971      .   S
    Zr44   O144      0.64128      .   S
    Zr95   O144      0.64128      .   S
    Zr44   O145      0.63798  1_655   S
    Zr94   O145      0.63798      .   S
    Zr26   O146      0.64135      .   S
    Zr53   O146      0.64135      .   S
    Zr26   O147      0.63779      .   S
    Zr52   O147      0.63779      .   S
    Zr86   O148      0.63017      .   S
    Zr39   O148      0.63017      .   S
    Zr72   O149      0.51476      .   S
    Zr33   O149      0.51476      .   S
    Zr10   O150      0.98466      .   S
    Zr103  O150      0.98466      .   S
    Zr10   O151      1.00017      .   S
    Zr80   O151      1.00017      .   S
    Zr6    O152      0.98498      .   S
    Zr61   O152      0.98498  1_565   S
    Zr6    O153      0.99926      .   S
    Zr66   O153      0.99926      .   S
    Zr95   O154      0.97338      .   S
    Zr15   O154      0.97338      .   S
    Zr53   O155      0.97608      .   S
    Zr3    O155      0.97608      .   S
    Zr21   O156      0.51376      .   S
    Zr89   O156      0.51376      .   S
    Zr19   O157      0.51261  1_565   S
    Zr75   O157      0.51261      .   S
    Zr94   O158      0.99916      .   S
    Zr14   O158      0.99916      .   S
    Zr52   O159      0.99872      .   S
    Zr2    O159      0.99872      .   S
    Zr33   O160      0.65182      .   S
    Zr71   O160      0.65182      .   S
    Zr39   O161      0.65146      .   S
    Zr85   O161      0.65146      .   S
    Zr11   O162      0.95908      .   S
    Zr85   O162      0.95908      .   S
    Zr11   O163      0.97288      .   S
    Zr81   O163      0.97288      .   S
    Zr7    O164      0.95823      .   S
    Zr71   O164      0.95823      .   S
    Zr7    O165      0.97516      .   S
    Zr67   O165      0.97516      .   S
    Zr89   O166      0.98278      .   S
    Zr14   O166      0.98278      .   S
    Zr75   O167      0.98352  1_545   S
    Zr2    O167      0.98352      .   S
    Zr61   O168      0.51226      .   S
    Zr17   O168      0.51226  1_545   S
    Zr103  O169      0.51192      .   S
    Zr23   O169      0.51192      .   S
    Zr99   O170      0.95886      .   S
    Zr15   O170      0.95886      .   S
    Zr99   O171      0.65186      .   S
    Zr45   O171      0.65186      .   S
    Zr57   O172      0.95845      .   S
    Zr3    O172      0.95845      .   S
    Zr57   O173      0.65188      .   S
    Zr27   O173      0.65188      .   S
    Zr3    O174      1.00305      .   S
    Zr56   O174      1.00305      .   S
    Zr15   O175      1.00125      .   S
    Zr98   O175      1.00125      .   S
    Zr45   O176      0.62967      .   S
    Zr100  O176      0.62967      .   S
    Zr27   O177      0.62974      .   S
    Zr58   O177      0.62974  1_545   S
    Zr66   O178      0.63771      .   S
    Zr32   O178      0.63771      .   S
    Zr80   O179      0.63776      .   S
    Zr38   O179      0.63776  1_455   S
    Zr67   O180      0.64152      .   S
    Zr32   O180      0.64152      .   S
    Zr81   O181      0.64159      .   S
    Zr38   O181      0.64159      .   S
    Zr2    O182      0.96012      .   S
    Zr55   O182      0.96012      .   S
    Zr14   O183      0.96044      .   S
    Zr97   O183      0.96044      .   S
    Zr56   O184      0.63634      .   S
    Zr28   O184      0.63634      .   S
    Zr98   O185      0.63625      .   S
    Zr46   O185      0.63625      .   S
    Zr55   O186      0.64399      .   S
    Zr28   O186      0.64399      .   S
    Zr97   O187      0.64430  1_455   S
    Zr46   O187      0.64430      .   S
    Zr37   O188      0.64381      .   S
    Zr76   O188      0.64381  1_455   S
    Zr37   O189      0.63653      .   S
    Zr77   O189      0.63653      .   S
    Zr31   O190      0.64391      .   S
    Zr62   O190      0.64391      .   S
    Zr31   O191      0.63630      .   S
    Zr63   O191      0.63630      .   S
    Zr62   O192      0.96027      .   S
    Zr4    O192      0.96027      .   S
    Zr76   O193      0.96064      .   S
    Zr8    O193      0.96064      .   S
    Zr77   O194      0.99990      .   S
    Zr9    O194      0.99990      .   S
    Zr63   O195      1.00142      .   S
    Zr5    O195      1.00142      .   S
    Zr29   O196      0.64151      .   S
    Zr60   O196      0.64151      .   S
    Zr29   O197      0.63780      .   S
    Zr59   O197      0.63780      .   S
    Zr47   O198      0.63810  1_455   S
    Zr101  O198      0.63810      .   S
    Zr47   O199      0.64136      .   S
    Zr102  O199      0.64136      .   S
    Zr79   O200      0.51086      .   S
    Zr36   O200      0.51086      .   S
    Zr65   O201      0.62950      .   S
    Zr30   O201      0.62950      .   S
    Zr18   O202      0.51162      .   S
    Zr68   O202      0.51162      .   S
    Zr20   O203      0.51349  1_565   S
    Zr82   O203      0.51349      .   S
    Zr36   O204      0.65140      .   S
    Zr78   O204      0.65140      .   S
    Zr30   O205      0.65193      .   S
    Zr64   O205      0.65193      .   S
    Zr9    O206      0.95952      .   S
    Zr78   O206      0.95952      .   S
    Zr5    O207      0.95935      .   S
    Zr64   O207      0.95935      .   S
    Zr54   O208      1.03896      .   S
    Zr0    O208      1.03896      .   S
    Zr54   O209      1.05556      .   S
    Zr1    O209      1.05556      .   S
    Zr61   O210      1.04265      .   S
    Zr2    O210      1.04265      .   S
    Zr61   O211      1.05378      .   S
    Zr3    O211      1.05378      .   S
    Zr68   O212      1.04268      .   S
    Zr4    O212      1.04268      .   S
    Zr68   O213      1.05832      .   S
    Zr5    O213      1.05832      .   S
    Zr75   O214      1.04036      .   S
    Zr6    O214      1.04036      .   S
    Zr75   O215      1.05437      .   S
    Zr7    O215      1.05437      .   S
    Zr82   O216      1.03888      .   S
    Zr8    O216      1.03888  1_455   S
    Zr82   O217      1.05570      .   S
    Zr9    O217      1.05570      .   S
    Zr89   O218      1.03907      .   S
    Zr10   O218      1.03907  1_655   S
    Zr89   O219      1.05108      .   S
    Zr11   O219      1.05108      .   S
    Zr96   O220      1.04205      .   S
    Zr12   O220      1.04205  1_655   S
    Zr96   O221      1.05898      .   S
    Zr13   O221      1.05898      .   S
    Zr103  O222      1.04591      .   S
    Zr14   O222      1.04591  1_455   S
    Zr103  O223      1.05195      .   S
    Zr15   O223      1.05195      .   S
    N224   O225      1.07144      .   S
    Zr47   O225      1.81718  1_455   S
    N224   O226      1.07204      .   S
    Zr46   O226      1.81782      .   S
    N227   O228      1.07097      .   S
    Zr43   O228      1.81631      .   S
    N227   O229      1.06928      .   S
    Zr44   O229      1.81778  1_655   S
    N230   O231      1.07112      .   S
    Zr29   O231      1.81651      .   S
    N230   O232      1.07177      .   S
    Zr28   O232      1.81747      .   S
    N233   O234      1.07020      .   S
    Zr38   O234      1.81516  1_455   S
    N233   O235      1.07089      .   S
    Zr37   O235      1.81597      .   S
    N236   O237      1.07219      .   S
    Zr34   O237      1.81809      .   S
    N236   O238      1.07167      .   S
    Zr35   O238      1.81750      .   S
    N239   O240      1.06948  1_455   S
    Zr41   O240      1.81828      .   S
    N239   O241      1.07105      .   S
    Zr40   O241      1.81637      .   S
    N242   O243      1.07341  1_645   S
    Zr27   O243      1.82060      .   S
    N242   O244      1.07340      .   S
    Zr33   O244      1.82053      .   S
    N245   O246      1.08067  1_554   S
    Zr30   O246      1.82826      .   S
    N245   O247      1.06865  1_455   S
    Zr24   O247      1.81628      .   S
    N248   O249      1.07065      .   S
    Zr32   O249      1.81589      .   S
    N248   O250      1.07121      .   S
    Zr31   O250      1.81653      .   S
    N251   O252      1.07125      .   S
    Zr25   O252      1.81650      .   S
    N251   O253      1.07072      .   S
    Zr26   O253      1.81607      .   S
    N254   O255      1.07392      .   S
    Zr39   O255      1.82136      .   S
    N254   O256      1.07399      .   S
    Zr45   O256      1.82166      .   S
    N257   O258      1.08002  1_554   S
    Zr36   O258      1.82720      .   S
    N257   O259      1.06853  1_545   S
    Zr42   O259      1.81628      .   S
