# CIF file generated by openbabel 2.4.90, see http://openbabel.sf.net
data_I
_chemical_name_common ''
_cell_length_a 14.528
_cell_length_b 15.81
_cell_length_c 18.955
_cell_angle_alpha 90.014
_cell_angle_beta 90.794
_cell_angle_gamma 90.077
_space_group_name_H-M_alt 'P 1'
_space_group_name_Hall 'P 1'
loop_
    _symmetry_equiv_pos_as_xyz
    x,y,z
loop_
    _atom_site_label
    _atom_site_type_symbol
    _atom_site_fract_x
    _atom_site_fract_y
    _atom_site_fract_z
    _atom_site_occupancy
    C0      C    0.47223   0.57353   0.03946   1.000
    C1      C    0.65693   0.64040   0.03439   1.000
    C2      C    0.53105   0.93003   0.53981   1.000
    C3      C    0.34452   0.86297   0.53115   1.000
    C4      C    0.53108   0.42988   0.96049   1.000
    C5      C    0.34403   0.36349   0.96577   1.000
    C6      C    0.46880   0.07360   0.46016   1.000
    C7      C    0.65552   0.14053   0.46889   1.000
    C8      C    0.02804   0.07364   0.96063   1.000
    C9      C    0.84335   0.14034   0.96567   1.000
    C10     C    0.96806   0.43008   0.46014   1.000
    C11     C    0.15288   0.36317   0.46877   1.000
    C12     C    0.96887   0.92990   0.03948   1.000
    C13     C    0.15583   0.86352   0.03434   1.000
    C14     C    0.03075   0.57374   0.53987   1.000
    C15     C    0.84389   0.64005   0.53127   1.000
    C16     C    0.94873   0.65020   0.01641   1.000
    C17     C    0.88843   0.38414   0.01442   1.000
    C18     C    0.66367   0.73997   0.24359   1.000
    C19     C    0.39129   0.63306   0.24366   1.000
    C20     C    0.36461   0.69469   0.36301   1.000
    C21     C    0.63702   0.80171   0.36361   1.000
    C22     C    0.65282   0.49546   0.03483   1.000
    C23     C    0.05296   0.85278   0.51301   1.000
    C24     C    0.11172   0.11905   0.51679   1.000
    C25     C    0.34160   0.76022   0.73833   1.000
    C26     C    0.61236   0.87042   0.74634   1.000
    C27     C    0.63806   0.80965   0.86660   1.000
    C28     C    0.36712   0.69949   0.85935   1.000
    C29     C    0.35016   0.00787   0.53475   1.000
    C30     C    0.05220   0.35332   0.00000   1.000
    C31     C    0.11248   0.61939   0.98542   1.000
    C32     C    0.33791   0.26344   0.75723   1.000
    C33     C    0.61008   0.37071   0.75580   1.000
    C34     C    0.63584   0.30911   0.63632   1.000
    C35     C    0.36362   0.20169   0.63709   1.000
    C36     C    0.35047   0.50840   0.96510   1.000
    C37     C    0.94651   0.14994   0.48670   1.000
    C38     C    0.88770   0.88368   0.48294   1.000
    C39     C    0.66028   0.24089   0.26143   1.000
    C40     C    0.38845   0.13298   0.25285   1.000
    C41     C    0.36365   0.19431   0.13272   1.000
    C42     C    0.63554   0.30237   0.14061   1.000
    C43     C    0.64930   0.99579   0.46520   1.000
    C44     C    0.55165   0.15023   0.00000   1.000
    C45     C    0.61121   0.88421   0.98477   1.000
    C46     C    0.83626   0.23965   0.75676   1.000
    C47     C    0.10864   0.13335   0.75627   1.000
    C48     C    0.13497   0.19495   0.63684   1.000
    C49     C    0.86257   0.30139   0.63668   1.000
    C50     C    0.84731   0.99552   0.96517   1.000
    C51     C    0.44454   0.35324   0.48710   1.000
    C52     C    0.38683   0.61959   0.48291   1.000
    C53     C    0.15820   0.26368   0.26191   1.000
    C54     C    0.88616   0.37049   0.25228   1.000
    C55     C    0.86241   0.30918   0.13195   1.000
    C56     C    0.13452   0.20223   0.14087   1.000
    C57     C    0.14891   0.50794   0.46514   1.000
    C58     C    0.44738   0.85321   0.01568   1.000
    C59     C    0.38787   0.11926   0.01475   1.000
    C60     C    0.16131   0.76426   0.24266   1.000
    C61     C    0.88819   0.86890   0.24381   1.000
    C62     C    0.86270   0.80687   0.36319   1.000
    C63     C    0.13588   0.70220   0.36274   1.000
    C64     C    0.14951   0.00841   0.03496   1.000
    C65     C    0.55213   0.65042   0.51286   1.000
    C66     C    0.60987   0.38412   0.51697   1.000
    C67     C    0.83919   0.73998   0.73893   1.000
    C68     C    0.11132   0.63327   0.74703   1.000
    C69     C    0.13623   0.69456   0.86722   1.000
    C70     C    0.86405   0.80140   0.85982   1.000
    C71     C    0.84943   0.49531   0.53486   1.000
    C72     C    0.81074   0.53682   0.03453   1.000
    C73     C    0.90904   0.51903   0.01755   1.000
    C74     C    0.97216   0.58545   0.00913   1.000
    C75     C    0.93797   0.43521   0.00818   1.000
    C76     C    0.54109   0.65164   0.16310   1.000
    C77     C    0.52856   0.68388   0.23627   1.000
    C78     C    0.59864   0.73029   0.27033   1.000
    C79     C    0.44466   0.66995   0.27030   1.000
    C80     C    0.47925   0.79569   0.43803   1.000
    C81     C    0.49889   0.75270   0.36982   1.000
    C82     C    0.42985   0.70422   0.33660   1.000
    C83     C    0.58392   0.76447   0.33688   1.000
    C84     C    0.19087   0.96629   0.53325   1.000
    C85     C    0.09184   0.98408   0.51689   1.000
    C86     C    0.02882   0.91758   0.50714   1.000
    C87     C    0.06218   0.06799   0.50945   1.000
    C88     C    0.46341   0.85024   0.66148   1.000
    C89     C    0.47590   0.81797   0.73493   1.000
    C90     C    0.40605   0.77079   0.76701   1.000
    C91     C    0.55910   0.83297   0.77141   1.000
    C92     C    0.52349   0.70802   0.93872   1.000
    C93     C    0.50443   0.75019   0.86966   1.000
    C94     C    0.57336   0.79919   0.83829   1.000
    C95     C    0.42016   0.73717   0.83413   1.000
    C96     C    0.19029   0.46676   0.96549   1.000
    C97     C    0.09192   0.48449   0.98241   1.000
    C98     C    0.02879   0.41808   0.00000   1.000
    C99     C    0.06296   0.56832   0.99171   1.000
    C100    C    0.46115   0.35198   0.83711   1.000
    C101    C    0.47301   0.31970   0.76388   1.000
    C102    C    0.40270   0.27320   0.73018   1.000
    C103    C    0.55657   0.33373   0.72943   1.000
    C104    C    0.52084   0.20794   0.56189   1.000
    C105    C    0.50162   0.25088   0.63018   1.000
    C106    C    0.57086   0.29946   0.66305   1.000
    C107    C    0.41690   0.23900   0.66355   1.000
    C108    C    0.80859   0.03677   0.46669   1.000
    C109    C    0.90759   0.01867   0.48285   1.000
    C110    C    0.97064   0.08514   0.49256   1.000
    C111    C    0.93725   0.93475   0.49025   1.000
    C112    C    0.53732   0.15195   0.33811   1.000
    C113    C    0.52539   0.18426   0.26460   1.000
    C114    C    0.59577   0.23095   0.23267   1.000
    C115    C    0.44215   0.17006   0.22795   1.000
    C116    C    0.47910   0.29550   0.06101   1.000
    C117    C    0.49778   0.25282   0.12996   1.000
    C118    C    0.42838   0.20418   0.16113   1.000
    C119    C    0.58210   0.26498   0.16563   1.000
    C120    C    0.68934   0.03688   0.96541   1.000
    C121    C    0.59096   0.01906   0.98220   1.000
    C122    C    0.52805   0.08545   0.00000   1.000
    C123    C    0.56180   0.93522   0.99123   1.000
    C124    C    0.95890   0.15159   0.83696   1.000
    C125    C    0.97135   0.18384   0.76382   1.000
    C126    C    0.90119   0.23010   0.72989   1.000
    C127    C    0.05520   0.17008   0.72970   1.000
    C128    C    0.02016   0.29547   0.56202   1.000
    C129    C    0.00062   0.25259   0.63025   1.000
    C130    C    0.06981   0.20432   0.66336   1.000
    C131    C    0.91571   0.26426   0.66332   1.000
    C132    C    0.30696   0.46670   0.46672   1.000
    C133    C    0.40609   0.48454   0.48298   1.000
    C134    C    0.46891   0.41805   0.49281   1.000
    C135    C    0.43615   0.56847   0.49028   1.000
    C136    C    0.03446   0.35180   0.33808   1.000
    C137    C    0.02311   0.31967   0.26450   1.000
    C138    C    0.09390   0.27337   0.23285   1.000
    C139    C    0.94010   0.33366   0.22754   1.000
    C140    C    0.97840   0.20833   0.06089   1.000
    C141    C    0.00000   0.25121   0.12978   1.000
    C142    C    0.92694   0.29956   0.16064   1.000
    C143    C    0.08084   0.23937   0.16573   1.000
    C144    C    0.30976   0.96667   0.03444   1.000
    C145    C    0.40810   0.98440   0.01733   1.000
    C146    C    0.47099   0.91800   0.00861   1.000
    C147    C    0.43726   0.06823   0.00824   1.000
    C148    C    0.03792   0.85189   0.16282   1.000
    C149    C    0.02582   0.81927   0.23591   1.000
    C150    C    0.09639   0.77336   0.26966   1.000
    C151    C    0.94197   0.83242   0.27021   1.000
    C152    C    0.97857   0.70723   0.43787   1.000
    C153    C    0.00000   0.75009   0.36950   1.000
    C154    C    0.92783   0.79794   0.33654   1.000
    C155    C    0.08235   0.73900   0.33624   1.000
    C156    C    0.68975   0.53692   0.53321   1.000
    C157    C    0.59059   0.51914   0.51690   1.000
    C158    C    0.52777   0.58562   0.50709   1.000
    C159    C    0.56053   0.43521   0.50960   1.000
    C160    C    0.96235   0.65185   0.66194   1.000
    C161    C    0.97424   0.68401   0.73551   1.000
    C162    C    0.90379   0.73030   0.76760   1.000
    C163    C    0.05760   0.67008   0.77206   1.000
    C164    C    0.02080   0.79537   0.93906   1.000
    C165    C    0.00196   0.75252   0.87018   1.000
    C166    C    0.07143   0.70418   0.83890   1.000
    C167    C    0.91752   0.76431   0.83465   1.000
    C168    C    0.47247   0.61104   0.13584   1.000
    C169    C    0.61679   0.66687   0.13250   1.000
    C170    C    0.78588   0.61559   0.02799   1.000
    C171    C    0.75820   0.47731   0.05242   1.000
    C172    C    0.54298   0.84043   0.46620   1.000
    C173    C    0.39818   0.78576   0.46271   1.000
    C174    C    0.59723   0.52217   0.00925   1.000
    C175    C    0.53129   0.89238   0.63612   1.000
    C176    C    0.38831   0.83367   0.62896   1.000
    C177    C    0.21552   0.88769   0.52498   1.000
    C178    C    0.24386   0.02543   0.55222   1.000
    C179    C    0.45983   0.66337   0.96571   1.000
    C180    C    0.60434   0.71843   0.96544   1.000
    C181    C    0.40456   0.98130   0.50906   1.000
    C182    C    0.53011   0.39245   0.86409   1.000
    C183    C    0.38563   0.33688   0.86795   1.000
    C184    C    0.21507   0.38789   0.97209   1.000
    C185    C    0.24282   0.52618   0.94763   1.000
    C186    C    0.45700   0.16326   0.53381   1.000
    C187    C    0.60182   0.21792   0.53703   1.000
    C188    C    0.40555   0.48141   0.99063   1.000
    C189    C    0.46857   0.11131   0.36377   1.000
    C190    C    0.61291   0.16710   0.37045   1.000
    C191    C    0.78440   0.11546   0.47513   1.000
    C192    C    0.75517   0.00000   0.44777   1.000
    C193    C    0.54303   0.34014   0.03433   1.000
    C194    C    0.39830   0.28541   0.03416   1.000
    C195    C    0.59492   0.02236   0.49098   1.000
    C196    C    0.02750   0.11105   0.86419   1.000
    C197    C    0.88323   0.16677   0.86755   1.000
    C198    C    0.71437   0.11567   0.97208   1.000
    C199    C    0.74179   0.00000   0.94752   1.000
    C200    C    0.95665   0.34029   0.53385   1.000
    C201    C    0.10117   0.28541   0.53726   1.000
    C202    C    0.90293   0.02219   0.99078   1.000
    C203    C    0.96564   0.39228   0.36370   1.000
    C204    C    0.10983   0.33657   0.37060   1.000
    C205    C    0.28196   0.38820   0.47504   1.000
    C206    C    0.25410   0.52584   0.44770   1.000
    C207    C    0.04226   0.16355   0.03436   1.000
    C208    C    0.89772   0.21838   0.03390   1.000
    C209    C    0.09409   0.48152   0.49084   1.000
    C210    C    0.96910   0.89245   0.13586   1.000
    C211    C    0.11352   0.83700   0.13207   1.000
    C212    C    0.28482   0.88775   0.02798   1.000
    C213    C    0.25742   0.02607   0.05239   1.000
    C214    C    0.04276   0.66325   0.46614   1.000
    C215    C    0.89750   0.71658   0.46263   1.000
    C216    C    0.09446   0.98141   0.00936   1.000
    C217    C    0.03113   0.61135   0.63624   1.000
    C218    C    0.88687   0.66705   0.62956   1.000
    C219    C    0.71474   0.61547   0.52485   1.000
    C220    C    0.74252   0.47783   0.55229   1.000
    C221    C    0.95695   0.84003   0.96570   1.000
    C222    C    0.10159   0.78537   0.96589   1.000
    C223    C    0.90376   0.52205   0.50919   1.000
    O224    O    0.04049   0.38570   0.00000   1.000
    O225    O    0.53985   0.11784   0.00000   1.000
    O226    O    0.48266   0.07684   0.00412   1.000
    O227    O    0.55951   0.05225   0.99110   1.000
    O228    O    0.98338   0.42664   0.00409   1.000
    O229    O    0.06035   0.45129   0.99120   1.000
    O230    O    0.91320   0.40968   0.01130   1.000
    O231    O    0.92351   0.47712   0.01287   1.000
    O232    O    0.41256   0.09374   0.01150   1.000
    O233    O    0.42268   0.02632   0.01279   1.000
    O234    O    0.45919   0.88561   0.01215   1.000
    O235    O    0.43954   0.95120   0.01297   1.000
    O236    O    0.51639   0.92661   0.99992   1.000
    O237    O    0.96045   0.61782   0.01277   1.000
    O238    O    0.94060   0.55224   0.01334   1.000
    O239    O    0.01756   0.57688   0.00042   1.000
    O240    O    0.62503   0.50881   0.02204   1.000
    O241    O    0.56416   0.47602   0.98487   1.000
    O242    O    0.12199   0.99491   0.02216   1.000
    O243    O    0.06125   0.02752   0.98499   1.000
    O244    O    0.35893   0.97553   0.02588   1.000
    O245    O    0.85989   0.52793   0.02604   1.000
    O246    O    0.22032   0.87564   0.03116   1.000
    O247    O    0.29729   0.92721   0.03121   1.000
    O248    O    0.72140   0.62799   0.03119   1.000
    O249    O    0.79831   0.57621   0.03126   1.000
    O250    O    0.93806   0.21335   0.04739   1.000
    O251    O    0.87053   0.17936   0.99978   1.000
    O252    O    0.43870   0.29045   0.04758   1.000
    O253    O    0.37116   0.32445   0.99996   1.000
    O254    O    0.51106   0.31782   0.04767   1.000
    O255    O    0.53705   0.38501   0.99741   1.000
    O256    O    0.13467   0.85026   0.08321   1.000
    O257    O    0.12871   0.82445   0.00012   1.000
    O258    O    0.01033   0.18594   0.04763   1.000
    O259    O    0.03515   0.11860   0.99750   1.000
    O260    O    0.63686   0.65363   0.08345   1.000
    O261    O    0.63063   0.67941   0.99991   1.000
    O262    O    0.28359   0.99637   0.04341   1.000
    O263    O    0.78447   0.50706   0.04347   1.000
    O264    O    0.47235   0.59228   0.08765   1.000
    O265    O    0.46603   0.61845   0.00259   1.000
    O266    O    0.43889   0.52747   0.01505   1.000
    O267    O    0.96899   0.91118   0.08767   1.000
    O268    O    0.96291   0.88497   0.00259   1.000
    O269    O    0.93590   0.97605   0.01513   1.000
    O270    O    0.98920   0.22977   0.09533   1.000
    O271    O    0.48844   0.27416   0.09549   1.000
    O272    O    0.96347   0.27538   0.14521   1.000
    O273    O    0.04042   0.24529   0.14776   1.000
    O274    O    0.46308   0.22850   0.14555   1.000
    O275    O    0.53994   0.25890   0.14780   1.000
    O276    O    0.89468   0.30437   0.14629   1.000
    O277    O    0.07572   0.84445   0.14745   1.000
    O278    O    0.57894   0.65926   0.14780   1.000
    O279    O    0.39602   0.19925   0.14693   1.000
    O280    O    0.50678   0.63134   0.14947   1.000
    O281    O    0.00351   0.87217   0.14934   1.000
    O282    O    0.60882   0.28368   0.15312   1.000
    O283    O    0.10768   0.22080   0.15330   1.000
    O284    O    0.93352   0.31661   0.19409   1.000
    O285    O    0.43526   0.18712   0.19454   1.000
    O286    O    0.03187   0.83558   0.19936   1.000
    O287    O    0.53483   0.66776   0.19969   1.000
    O288    O    0.58894   0.24797   0.19915   1.000
    O289    O    0.08737   0.25637   0.19929   1.000
    O290    O    0.91313   0.35207   0.23991   1.000
    O291    O    0.98161   0.32667   0.24602   1.000
    O292    O    0.41530   0.15152   0.24040   1.000
    O293    O    0.48377   0.17716   0.24628   1.000
    O294    O    0.62802   0.23592   0.24705   1.000
    O295    O    0.56058   0.20761   0.24863   1.000
    O296    O    0.12605   0.26853   0.24738   1.000
    O297    O    0.05851   0.29652   0.24868   1.000
    O298    O    0.06110   0.79631   0.25278   1.000
    O299    O    0.98389   0.82584   0.25306   1.000
    O300    O    0.48661   0.67691   0.25328   1.000
    O301    O    0.56360   0.70708   0.25330   1.000
    O302    O    0.12885   0.76881   0.25616   1.000
    O303    O    0.63115   0.73513   0.25696   1.000
    O304    O    0.41797   0.65150   0.25698   1.000
    O305    O    0.91508   0.85066   0.25701   1.000
    O306    O    0.02879   0.33574   0.30129   1.000
    O307    O    0.53135   0.16810   0.30136   1.000
    O308    O    0.08937   0.75618   0.30295   1.000
    O309    O    0.93490   0.81518   0.30337   1.000
    O310    O    0.43725   0.68709   0.30345   1.000
    O311    O    0.59128   0.74738   0.30361   1.000
    O312    O    0.10912   0.72060   0.34949   1.000
    O313    O    0.04118   0.74455   0.35287   1.000
    O314    O    0.89526   0.80241   0.34986   1.000
    O315    O    0.96391   0.77402   0.35302   1.000
    O316    O    0.39723   0.69946   0.34980   1.000
    O317    O    0.46437   0.72846   0.35321   1.000
    O318    O    0.61047   0.78309   0.35025   1.000
    O319    O    0.54140   0.75859   0.35335   1.000
    O320    O    0.00005   0.37204   0.35089   1.000
    O321    O    0.07214   0.34419   0.35434   1.000
    O322    O    0.50294   0.13163   0.35094   1.000
    O323    O    0.57512   0.15952   0.35428   1.000
    O324    O    0.96685   0.41118   0.41192   1.000
    O325    O    0.46868   0.09245   0.41197   1.000
    O326    O    0.98929   0.72866   0.40368   1.000
    O327    O    0.48907   0.77420   0.40393   1.000
    O328    O    0.63421   0.15382   0.41967   1.000
    O329    O    0.13136   0.34987   0.41968   1.000
    O330    O    0.93804   0.71191   0.45025   1.000
    O331    O    0.01066   0.68524   0.45200   1.000
    O332    O    0.43872   0.79073   0.45037   1.000
    O333    O    0.51111   0.81806   0.45212   1.000
    O334    O    0.28053   0.49627   0.45721   1.000
    O335    O    0.78188   0.01838   0.45723   1.000
    O336    O    0.93591   0.47606   0.48467   1.000
    O337    O    0.96235   0.38519   0.49700   1.000
    O338    O    0.43668   0.02745   0.48461   1.000
    O339    O    0.46290   0.11843   0.49699   1.000
    O340    O    0.87070   0.67832   0.49695   1.000
    O341    O    0.37135   0.82437   0.49693   1.000
    O342    O    0.12150   0.49473   0.47799   1.000
    O343    O    0.62211   0.00908   0.47809   1.000
    O344    O    0.03675   0.61850   0.50300   1.000
    O345    O    0.53702   0.88523   0.50301   1.000
    O346    O    0.79650   0.07611   0.47091   1.000
    O347    O    0.85809   0.02772   0.47477   1.000
    O348    O    0.29446   0.42745   0.47088   1.000
    O349    O    0.35653   0.47562   0.47485   1.000
    O350    O    0.21742   0.37569   0.47191   1.000
    O351    O    0.12703   0.32429   0.50301   1.000
    O352    O    0.71996   0.12799   0.47201   1.000
    O353    O    0.62867   0.17923   0.50296   1.000
    O354    O    0.92242   0.97671   0.48655   1.000
    O355    O    0.93912   0.05191   0.48771   1.000
    O356    O    0.41149   0.59403   0.48659   1.000
    O357    O    0.91248   0.90921   0.48660   1.000
    O358    O    0.42112   0.52651   0.48663   1.000
    O359    O    0.43750   0.45130   0.48790   1.000
    O360    O    0.95857   0.11754   0.48963   1.000
    O361    O    0.45672   0.38564   0.48996   1.000
    O362    O    0.98304   0.92617   0.49869   1.000
    O363    O    0.48196   0.57704   0.49868   1.000
    O364    O    0.06242   0.52763   0.51535   1.000
    O365    O    0.56298   0.97620   0.51540   1.000
    O366    O    0.01641   0.07657   0.50101   1.000
    O367    O    0.51472   0.42663   0.50121   1.000
    O368    O    0.53995   0.61802   0.50997   1.000
    O369    O    0.55918   0.55238   0.51199   1.000
    O370    O    0.04089   0.88518   0.51007   1.000
    O371    O    0.06033   0.95083   0.51201   1.000
    O372    O    0.37736   0.99458   0.52190   1.000
    O373    O    0.87660   0.50868   0.52202   1.000
    O374    O    0.08695   0.09352   0.51312   1.000
    O375    O    0.07701   0.02603   0.51317   1.000
    O376    O    0.57556   0.47717   0.51325   1.000
    O377    O    0.58520   0.40966   0.51329   1.000
    O378    O    0.14136   0.97518   0.52507   1.000
    O379    O    0.64017   0.52803   0.52505   1.000
    O380    O    0.77931   0.62776   0.52806   1.000
    O381    O    0.70225   0.57620   0.52903   1.000
    O382    O    0.28002   0.87533   0.52807   1.000
    O383    O    0.20319   0.92699   0.52912   1.000
    O384    O    0.36641   0.84832   0.58005   1.000
    O385    O    0.86538   0.65355   0.58041   1.000
    O386    O    0.71614   0.50737   0.54275   1.000
    O387    O    0.21736   0.99586   0.54273   1.000
    O388    O    0.48892   0.18560   0.54785   1.000
    O389    O    0.98840   0.31788   0.54794   1.000
    O390    O    0.56133   0.21293   0.54946   1.000
    O391    O    0.06067   0.29044   0.54964   1.000
    O392    O    0.53117   0.91121   0.58796   1.000
    O393    O    0.03094   0.59255   0.58806   1.000
    O394    O    0.51123   0.22941   0.59604   1.000
    O395    O    0.01039   0.27403   0.59613   1.000
    O396    O    0.42586   0.84196   0.64522   1.000
    O397    O    0.92461   0.65945   0.64575   1.000
    O398    O    0.53624   0.27517   0.64662   1.000
    O399    O    0.45926   0.24494   0.64687   1.000
    O400    O    0.95817   0.25842   0.64678   1.000
    O401    O    0.03522   0.22845   0.64680   1.000
    O402    O    0.49735   0.87131   0.64880   1.000
    O403    O    0.99674   0.63160   0.64909   1.000
    O404    O    0.60335   0.30429   0.64969   1.000
    O405    O    0.88914   0.28282   0.65000   1.000
    O406    O    0.10239   0.19963   0.65010   1.000
    O407    O    0.39026   0.22035   0.65032   1.000
    O408    O    0.46966   0.83411   0.69820   1.000
    O409    O    0.96830   0.66793   0.69872   1.000
    O410    O    0.56372   0.31659   0.69624   1.000
    O411    O    0.90845   0.24718   0.69660   1.000
    O412    O    0.06251   0.18720   0.69653   1.000
    O413    O    0.40980   0.25610   0.69686   1.000
    O414    O    0.58333   0.35222   0.74262   1.000
    O415    O    0.51479   0.32671   0.74665   1.000
    O416    O    0.08192   0.15172   0.74298   1.000
    O417    O    0.01328   0.17696   0.74676   1.000
    O418    O    0.86872   0.23487   0.74333   1.000
    O419    O    0.93627   0.20697   0.74685   1.000
    O420    O    0.37030   0.26832   0.74371   1.000
    O421    O    0.43785   0.29645   0.74703   1.000
    O422    O    0.44098   0.79438   0.75097   1.000
    O423    O    0.51750   0.82547   0.75317   1.000
    O424    O    0.93902   0.70716   0.75155   1.000
    O425    O    0.01592   0.67705   0.75378   1.000
    O426    O    0.37382   0.76551   0.75267   1.000
    O427    O    0.87149   0.73514   0.75326   1.000
    O428    O    0.58573   0.85170   0.75888   1.000
    O429    O    0.08446   0.65167   0.75954   1.000
    O430    O    0.96513   0.16772   0.80039   1.000
    O431    O    0.46708   0.33584   0.80049   1.000
    O432    O    0.41310   0.75398   0.80057   1.000
    O433    O    0.91065   0.74730   0.80112   1.000
    O434    O    0.56623   0.81608   0.80485   1.000
    O435    O    0.06451   0.68713   0.80548   1.000
    O436    O    0.39364   0.71833   0.84674   1.000
    O437    O    0.46229   0.74368   0.85190   1.000
    O438    O    0.89079   0.78286   0.84723   1.000
    O439    O    0.95974   0.75842   0.85241   1.000
    O440    O    0.99320   0.13132   0.85058   1.000
    O441    O    0.92107   0.15918   0.85225   1.000
    O442    O    0.49563   0.37221   0.85060   1.000
    O443    O    0.42339   0.34443   0.85253   1.000
    O444    O    0.60571   0.80442   0.85244   1.000
    O445    O    0.53889   0.77469   0.85398   1.000
    O446    O    0.10383   0.69937   0.85306   1.000
    O447    O    0.03670   0.72835   0.85454   1.000
    O448    O    0.53060   0.41116   0.91229   1.000
    O449    O    0.02777   0.09234   0.91241   1.000
    O450    O    0.86329   0.15355   0.91661   1.000
    O451    O    0.36483   0.35019   0.91686   1.000
    O452    O    0.51396   0.72911   0.90419   1.000
    O453    O    0.01138   0.77394   0.90462   1.000
    O454    O    0.56391   0.71323   0.95208   1.000
    O455    O    0.49166   0.68569   0.95221   1.000
    O456    O    0.98887   0.81770   0.95238   1.000
    O457    O    0.06119   0.79037   0.95248   1.000
    O458    O    0.71557   0.01844   0.95646   1.000
    O459    O    0.21655   0.49647   0.95656   1.000
    O460    O    0.37801   0.49491   0.97786   1.000
    O461    O    0.87512   0.00886   0.97798   1.000
    O462    O    0.70185   0.07628   0.96874   1.000
    O463    O    0.64015   0.02797   0.97380   1.000
    O464    O    0.20268   0.42733   0.96879   1.000
    O465    O    0.14110   0.47563   0.97395   1.000
    O466    O    0.77886   0.12800   0.96887   1.000
    O467    O    0.27955   0.37569   0.96893   1.000
    O468    O    0.57638   0.97714   0.98672   1.000
    O469    O    0.07744   0.52641   0.98706   1.000
    O470    O    0.58650   0.90971   0.98800   1.000
    O471    O    0.08772   0.59385   0.98857   1.000
    O472    O    0.53473   0.54785   0.02436   1.000
    O473    O    0.62708   0.58128   0.02182   1.000
    O474    O    0.46780   0.95566   0.52443   1.000
    O475    O    0.37454   0.92213   0.52010   1.000
    O476    O    0.46832   0.45565   0.97556   1.000
    O477    O    0.37479   0.42245   0.97820   1.000
    O478    O    0.53186   0.04798   0.47557   1.000
    O479    O    0.62522   0.08145   0.47994   1.000
    O480    O    0.96548   0.04792   0.97571   1.000
    O481    O    0.87314   0.08126   0.97823   1.000
    O482    O    0.03108   0.45580   0.47549   1.000
    O483    O    0.12349   0.42234   0.47980   1.000
    O484    O    0.03167   0.95566   0.02442   1.000
    O485    O    0.12515   0.92247   0.02185   1.000
    O486    O    0.96725   0.54790   0.52453   1.000
    O487    O    0.87382   0.58105   0.52023   1.000
loop_
    _geom_bond_atom_site_label_1
    _geom_bond_atom_site_label_2
    _geom_bond_distance
    _geom_bond_site_symmetry_2
    _ccdc_geom_bond_type
    C30    O224      0.53964      .   S
    C98    O224      0.53964      .   S
    C44    O225      0.53984      .   S
    C122   O225      0.53984      .   S
    C122   O226      0.67883      .   S
    C147   O226      0.67883      .   S
    C122   O227      0.71795  1_554   S
    C121   O227      0.71795      .   S
    C98    O228      0.67910  1_455   S
    C75    O228      0.67910      .   S
    C98    O229      0.71781  1_554   S
    C97    O229      0.71781      .   S
    C75    O230      0.54422      .   S
    C17    O230      0.54422      .   S
    C75    O231      0.70139      .   S
    C73    O231      0.70139      .   S
    C147   O232      0.54423      .   S
    C59    O232      0.54423      .   S
    C147   O233      0.70111      .   S
    C145   O233      0.70111  1_565   S
    C146   O234      0.54434      .   S
    C58    O234      0.54434      .   S
    C146   O235      0.70192      .   S
    C145   O235      0.70192      .   S
    C146   O236      0.69539  1_554   S
    C123   O236      0.69539      .   S
    C74    O237      0.54432      .   S
    C16    O237      0.54432      .   S
    C74    O238      0.70186      .   S
    C73    O238      0.70186      .   S
    C74    O239      0.69561  1_655   S
    C99    O239      0.69561  1_556   S
    C174   O240      0.51375      .   S
    C22    O240      0.51375      .   S
    C174   O241      0.98458  1_554   S
    C4     O241      0.98458      .   S
    C216   O242      0.51122      .   S
    C64    O242      0.51122  1_545   S
    C216   O243      0.98622  1_564   S
    C8     O243      0.98622      .   S
    C145   O244      0.74777      .   S
    C144   O244      0.74777      .   S
    C73    O245      0.74764      .   S
    C72    O245      0.74764      .   S
    C212   O246      0.95886      .   S
    C13    O246      0.95886      .   S
    C212   O247      0.65199      .   S
    C144   O247      0.65199      .   S
    C170   O248      0.96000      .   S
    C1     O248      0.96000      .   S
    C170   O249      0.65130      .   S
    C72    O249      0.65130      .   S
    C208   O250      0.64130      .   S
    C140   O250      0.64130      .   S
    C208   O251      0.97302  1_554   S
    C9     O251      0.97302      .   S
    C194   O252      0.64137      .   S
    C116   O252      0.64137      .   S
    C194   O253      0.97484  1_554   S
    C5     O253      0.97484      .   S
    C193   O254      0.63794      .   S
    C116   O254      0.63794      .   S
    C193   O255      0.99960  1_554   S
    C4     O255      0.99960      .   S
    C13    O256      1.00205      .   S
    C211   O256      1.00205      .   S
    C13    O257      0.97457      .   S
    C222   O257      0.97457  1_556   S
    C207   O258      0.63815      .   S
    C140   O258      0.63815  1_655   S
    C207   O259      1.00089  1_554   S
    C8     O259      1.00089      .   S
    C1     O260      1.00048      .   S
    C169   O260      1.00048      .   S
    C1     O261      0.97336  1_554   S
    C180   O261      0.97336      .   S
    C144   O262      0.62947      .   S
    C213   O262      0.62947  1_545   S
    C72    O263      0.63017      .   S
    C171   O263      0.63017      .   S
    C0     O264      0.96021      .   S
    C168   O264      0.96021      .   S
    C0     O265      0.99983      .   S
    C179   O265      0.99983  1_556   S
    C0     O266      0.98578      .   S
    C188   O266      0.98578  1_556   S
    C12    O267      0.96028      .   S
    C210   O267      0.96028      .   S
    C12    O268      0.99956      .   S
    C221   O268      0.99956  1_556   S
    C12    O269      0.98473      .   S
    C202   O269      0.98473  1_546   S
    C140   O270      0.75014      .   S
    C141   O270      0.75014  1_455   S
    C116   O271      0.74634      .   S
    C117   O271      0.74634      .   S
    C141   O272      0.71978  1_455   S
    C142   O272      0.71978      .   S
    C141   O273      0.68139      .   S
    C143   O273      0.68139      .   S
    C117   O274      0.70207      .   S
    C118   O274      0.70207      .   S
    C117   O275      0.70199      .   S
    C119   O275      0.70199      .   S
    C55    O276      0.54406      .   S
    C142   O276      0.54406      .   S
    C211   O277      0.63638      .   S
    C148   O277      0.63638      .   S
    C169   O278      0.63659      .   S
    C76    O278      0.63659      .   S
    C41    O279      0.54412      .   S
    C118   O279      0.54412      .   S
    C168   O280      0.64364      .   S
    C76    O280      0.64364      .   S
    C210   O281      0.64407  1_655   S
    C148   O281      0.64407      .   S
    C42    O282      0.54460      .   S
    C119   O282      0.54460      .   S
    C56    O283      0.54460      .   S
    C143   O283      0.54460      .   S
    C142   O284      0.69423      .   S
    C139   O284      0.69423      .   S
    C118   O285      0.69440      .   S
    C115   O285      0.69440      .   S
    C148   O286      0.74556      .   S
    C149   O286      0.74556      .   S
    C76    O287      0.74550      .   S
    C77    O287      0.74550      .   S
    C119   O288      0.69588      .   S
    C114   O288      0.69588      .   S
    C143   O289      0.69573      .   S
    C138   O289      0.69573      .   S
    C139   O290      0.54414      .   S
    C54    O290      0.54414      .   S
    C139   O291      0.70206      .   S
    C137   O291      0.70206  1_455   S
    C115   O292      0.54412      .   S
    C40    O292      0.54412      .   S
    C115   O293      0.70205      .   S
    C113   O293      0.70205      .   S
    C114   O294      0.54446      .   S
    C39    O294      0.54446      .   S
    C114   O295      0.70216      .   S
    C113   O295      0.70216      .   S
    C138   O296      0.54441      .   S
    C53    O296      0.54441      .   S
    C138   O297      0.70219      .   S
    C137   O297      0.70219      .   S
    C149   O298      0.70205      .   S
    C150   O298      0.70205      .   S
    C149   O299      0.70220  1_455   S
    C151   O299      0.70220      .   S
    C77    O300      0.70206      .   S
    C79    O300      0.70206      .   S
    C77    O301      0.70200      .   S
    C78    O301      0.70200      .   S
    C60    O302      0.54445      .   S
    C150   O302      0.54445      .   S
    C18    O303      0.54448      .   S
    C78    O303      0.54448      .   S
    C19    O304      0.54406      .   S
    C79    O304      0.54406      .   S
    C61    O305      0.54408      .   S
    C151   O305      0.54408      .   S
    C137   O306      0.74551      .   S
    C136   O306      0.74551      .   S
    C113   O307      0.74611      .   S
    C112   O307      0.74611      .   S
    C150   O308      0.69576      .   S
    C155   O308      0.69576      .   S
    C151   O309      0.69408      .   S
    C154   O309      0.69408      .   S
    C79    O310      0.69411      .   S
    C82    O310      0.69411      .   S
    C78    O311      0.69578      .   S
    C83    O311      0.69578      .   S
    C155   O312      0.54460      .   S
    C63    O312      0.54460      .   S
    C155   O313      0.68577      .   S
    C153   O313      0.68577      .   S
    C154   O314      0.54409      .   S
    C62    O314      0.54409      .   S
    C154   O315      0.71524      .   S
    C153   O315      0.71524  1_455   S
    C82    O316      0.54410      .   S
    C20    O316      0.54410      .   S
    C82    O317      0.70183      .   S
    C81    O317      0.70183      .   S
    C83    O318      0.54458      .   S
    C21    O318      0.54458      .   S
    C83    O319      0.70199      .   S
    C81    O319      0.70199      .   S
    C136   O320      0.64423      .   S
    C203   O320      0.64423  1_655   S
    C136   O321      0.63624      .   S
    C204   O321      0.63624      .   S
    C112   O322      0.64399      .   S
    C189   O322      0.64399      .   S
    C112   O323      0.63633      .   S
    C190   O323      0.63633      .   S
    C203   O324      0.96146      .   S
    C10    O324      0.96146      .   S
    C189   O325      0.96091      .   S
    C6     O325      0.96091      .   S
    C153   O326      0.74947  1_455   S
    C152   O326      0.74947      .   S
    C81    O327      0.74587      .   S
    C80    O327      0.74587      .   S
    C190   O328      1.00133      .   S
    C7     O328      1.00133      .   S
    C204   O329      0.99971      .   S
    C11    O329      0.99971      .   S
    C152   O330      0.64128      .   S
    C215   O330      0.64128      .   S
    C152   O331      0.63798  1_655   S
    C214   O331      0.63798      .   S
    C80    O332      0.64135      .   S
    C173   O332      0.64135      .   S
    C80    O333      0.63779      .   S
    C172   O333      0.63779      .   S
    C206   O334      0.63017      .   S
    C132   O334      0.63017      .   S
    C192   O335      0.51476      .   S
    C108   O335      0.51476      .   S
    C10    O336      0.98466      .   S
    C223   O336      0.98466      .   S
    C10    O337      1.00017      .   S
    C200   O337      1.00017      .   S
    C6     O338      0.98498      .   S
    C181   O338      0.98498  1_565   S
    C6     O339      0.99926      .   S
    C186   O339      0.99926      .   S
    C215   O340      0.97338      .   S
    C15    O340      0.97338      .   S
    C173   O341      0.97608      .   S
    C3     O341      0.97608      .   S
    C57    O342      0.51376      .   S
    C209   O342      0.51376      .   S
    C43    O343      0.51261  1_565   S
    C195   O343      0.51261      .   S
    C214   O344      0.99916      .   S
    C14    O344      0.99916      .   S
    C172   O345      0.99872      .   S
    C2     O345      0.99872      .   S
    C108   O346      0.65182      .   S
    C191   O346      0.65182      .   S
    C108   O347      0.74719      .   S
    C109   O347      0.74719      .   S
    C132   O348      0.65146      .   S
    C205   O348      0.65146      .   S
    C132   O349      0.74750      .   S
    C133   O349      0.74750      .   S
    C11    O350      0.95908      .   S
    C205   O350      0.95908      .   S
    C11    O351      0.97288      .   S
    C201   O351      0.97288      .   S
    C7     O352      0.95823      .   S
    C191   O352      0.95823      .   S
    C7     O353      0.97516      .   S
    C187   O353      0.97516      .   S
    C109   O354      0.70102  1_545   S
    C111   O354      0.70102      .   S
    C109   O355      0.70182      .   S
    C110   O355      0.70182      .   S
    C52    O356      0.54426      .   S
    C135   O356      0.54426      .   S
    C38    O357      0.54428      .   S
    C111   O357      0.54428      .   S
    C133   O358      0.70129      .   S
    C135   O358      0.70129      .   S
    C133   O359      0.70189      .   S
    C134   O359      0.70189      .   S
    C37    O360      0.54422      .   S
    C110   O360      0.54422      .   S
    C51    O361      0.54428      .   S
    C134   O361      0.54428      .   S
    C111   O362      0.69551      .   S
    C86    O362      0.69551  1_455   S
    C135   O363      0.69532      .   S
    C158   O363      0.69532      .   S
    C209   O364      0.98278      .   S
    C14    O364      0.98278      .   S
    C195   O365      0.98352  1_545   S
    C2     O365      0.98352      .   S
    C110   O366      0.69531  1_655   S
    C87    O366      0.69531      .   S
    C134   O367      0.69531      .   S
    C159   O367      0.69531      .   S
    C158   O368      0.54424      .   S
    C65    O368      0.54424      .   S
    C158   O369      0.70182      .   S
    C157   O369      0.70182      .   S
    C86    O370      0.54426      .   S
    C23    O370      0.54426      .   S
    C86    O371      0.70183      .   S
    C85    O371      0.70183      .   S
    C181   O372      0.51226      .   S
    C29    O372      0.51226  1_545   S
    C223   O373      0.51192      .   S
    C71    O373      0.51192      .   S
    C87    O374      0.54425      .   S
    C24    O374      0.54425      .   S
    C87    O375      0.70099      .   S
    C85    O375      0.70099  1_565   S
    C159   O376      0.70129      .   S
    C157   O376      0.70129      .   S
    C159   O377      0.54426      .   S
    C66    O377      0.54426      .   S
    C85    O378      0.74725      .   S
    C84    O378      0.74725      .   S
    C157   O379      0.74772      .   S
    C156   O379      0.74772      .   S
    C219   O380      0.95886      .   S
    C15    O380      0.95886      .   S
    C219   O381      0.65186      .   S
    C156   O381      0.65186      .   S
    C177   O382      0.95845      .   S
    C3     O382      0.95845      .   S
    C177   O383      0.65188      .   S
    C84    O383      0.65188      .   S
    C3     O384      1.00305      .   S
    C176   O384      1.00305      .   S
    C15    O385      1.00125      .   S
    C218   O385      1.00125      .   S
    C156   O386      0.62967      .   S
    C220   O386      0.62967      .   S
    C84    O387      0.62974      .   S
    C178   O387      0.62974  1_545   S
    C186   O388      0.63771      .   S
    C104   O388      0.63771      .   S
    C200   O389      0.63776      .   S
    C128   O389      0.63776  1_455   S
    C187   O390      0.64152      .   S
    C104   O390      0.64152      .   S
    C201   O391      0.64159      .   S
    C128   O391      0.64159      .   S
    C2     O392      0.96012      .   S
    C175   O392      0.96012      .   S
    C14    O393      0.96044      .   S
    C217   O393      0.96044      .   S
    C104   O394      0.74576      .   S
    C105   O394      0.74576      .   S
    C128   O395      0.74548      .   S
    C129   O395      0.74548      .   S
    C176   O396      0.63634      .   S
    C88    O396      0.63634      .   S
    C218   O397      0.63625      .   S
    C160   O397      0.63625      .   S
    C105   O398      0.70184      .   S
    C106   O398      0.70184      .   S
    C105   O399      0.70198      .   S
    C107   O399      0.70198      .   S
    C129   O400      0.70189  1_455   S
    C131   O400      0.70189      .   S
    C129   O401      0.70203      .   S
    C130   O401      0.70203      .   S
    C175   O402      0.64399      .   S
    C88    O402      0.64399      .   S
    C217   O403      0.64430  1_455   S
    C160   O403      0.64430      .   S
    C34    O404      0.54406      .   S
    C106   O404      0.54406      .   S
    C49    O405      0.54458      .   S
    C131   O405      0.54458      .   S
    C48    O406      0.54408      .   S
    C130   O406      0.54408      .   S
    C35    O407      0.54461      .   S
    C107   O407      0.54461      .   S
    C88    O408      0.74588      .   S
    C89    O408      0.74588      .   S
    C160   O409      0.74599      .   S
    C161   O409      0.74599      .   S
    C106   O410      0.69402      .   S
    C103   O410      0.69402      .   S
    C131   O411      0.69570      .   S
    C126   O411      0.69570      .   S
    C130   O412      0.69404      .   S
    C127   O412      0.69404      .   S
    C107   O413      0.69586      .   S
    C102   O413      0.69586      .   S
    C103   O414      0.54403      .   S
    C33    O414      0.54403      .   S
    C103   O415      0.70192      .   S
    C101   O415      0.70192      .   S
    C127   O416      0.54407      .   S
    C47    O416      0.54407      .   S
    C127   O417      0.70218      .   S
    C125   O417      0.70218  1_655   S
    C126   O418      0.54445      .   S
    C46    O418      0.54445      .   S
    C126   O419      0.70201      .   S
    C125   O419      0.70201      .   S
    C102   O420      0.54449      .   S
    C32    O420      0.54449      .   S
    C102   O421      0.70210      .   S
    C101   O421      0.70210      .   S
    C89    O422      0.70204      .   S
    C90    O422      0.70204      .   S
    C89    O423      0.70204      .   S
    C91    O423      0.70204      .   S
    C161   O424      0.70217      .   S
    C162   O424      0.70217      .   S
    C161   O425      0.70223  1_655   S
    C163   O425      0.70223      .   S
    C25    O426      0.54445      .   S
    C90    O426      0.54445      .   S
    C67    O427      0.54445      .   S
    C162   O427      0.54445      .   S
    C26    O428      0.54411      .   S
    C91    O428      0.54411      .   S
    C68    O429      0.54411      .   S
    C163   O429      0.54411      .   S
    C125   O430      0.74532      .   S
    C124   O430      0.74532      .   S
    C101   O431      0.74557      .   S
    C100   O431      0.74557      .   S
    C90    O432      0.69578      .   S
    C95    O432      0.69578      .   S
    C162   O433      0.69586      .   S
    C167   O433      0.69586      .   S
    C91    O434      0.69432      .   S
    C94    O434      0.69432      .   S
    C163   O435      0.69435      .   S
    C166   O435      0.69435      .   S
    C95    O436      0.54458      .   S
    C28    O436      0.54458      .   S
    C95    O437      0.70199      .   S
    C93    O437      0.70199      .   S
    C167   O438      0.54459      .   S
    C70    O438      0.54459      .   S
    C167   O439      0.70195      .   S
    C165   O439      0.70195  1_455   S
    C124   O440      0.64381      .   S
    C196   O440      0.64381  1_455   S
    C124   O441      0.63653      .   S
    C197   O441      0.63653      .   S
    C100   O442      0.64391      .   S
    C182   O442      0.64391      .   S
    C100   O443      0.63630      .   S
    C183   O443      0.63630      .   S
    C94    O444      0.54413      .   S
    C27    O444      0.54413      .   S
    C94    O445      0.70201      .   S
    C93    O445      0.70201      .   S
    C166   O446      0.54410      .   S
    C69    O446      0.54410      .   S
    C166   O447      0.70222      .   S
    C165   O447      0.70222      .   S
    C182   O448      0.96027      .   S
    C4     O448      0.96027      .   S
    C196   O449      0.96064      .   S
    C8     O449      0.96064      .   S
    C197   O450      0.99990      .   S
    C9     O450      0.99990      .   S
    C183   O451      1.00142      .   S
    C5     O451      1.00142      .   S
    C93    O452      0.74589      .   S
    C92    O452      0.74589      .   S
    C165   O453      0.74627      .   S
    C164   O453      0.74627      .   S
    C92    O454      0.64151      .   S
    C180   O454      0.64151      .   S
    C92    O455      0.63780      .   S
    C179   O455      0.63780      .   S
    C164   O456      0.63810  1_455   S
    C221   O456      0.63810      .   S
    C164   O457      0.64136      .   S
    C222   O457      0.64136      .   S
    C199   O458      0.51086      .   S
    C120   O458      0.51086      .   S
    C185   O459      0.62950      .   S
    C96    O459      0.62950      .   S
    C36    O460      0.51162      .   S
    C188   O460      0.51162      .   S
    C50    O461      0.51349  1_565   S
    C202   O461      0.51349      .   S
    C120   O462      0.65140      .   S
    C198   O462      0.65140      .   S
    C120   O463      0.74750      .   S
    C121   O463      0.74750      .   S
    C96    O464      0.65193      .   S
    C184   O464      0.65193      .   S
    C96    O465      0.74790      .   S
    C97    O465      0.74790      .   S
    C9     O466      0.95952      .   S
    C198   O466      0.95952      .   S
    C5     O467      0.95935      .   S
    C184   O467      0.95935      .   S
    C121   O468      0.70112  1_545   S
    C123   O468      0.70112      .   S
    C97    O469      0.70140      .   S
    C99    O469      0.70140      .   S
    C45    O470      0.54423      .   S
    C123   O470      0.54423      .   S
    C31    O471      0.54422      .   S
    C99    O471      0.54422      .   S
    C174   O472      1.03896      .   S
    C0     O472      1.03896      .   S
    C174   O473      1.05556      .   S
    C1     O473      1.05556      .   S
    C181   O474      1.04265      .   S
    C2     O474      1.04265      .   S
    C181   O475      1.05378      .   S
    C3     O475      1.05378      .   S
    C188   O476      1.04268      .   S
    C4     O476      1.04268      .   S
    C188   O477      1.05832      .   S
    C5     O477      1.05832      .   S
    C195   O478      1.04036      .   S
    C6     O478      1.04036      .   S
    C195   O479      1.05437      .   S
    C7     O479      1.05437      .   S
    C202   O480      1.03888      .   S
    C8     O480      1.03888  1_455   S
    C202   O481      1.05570      .   S
    C9     O481      1.05570      .   S
    C209   O482      1.03907      .   S
    C10    O482      1.03907  1_655   S
    C209   O483      1.05108      .   S
    C11    O483      1.05108      .   S
    C216   O484      1.04205      .   S
    C12    O484      1.04205  1_655   S
    C216   O485      1.05898      .   S
    C13    O485      1.05898      .   S
    C223   O486      1.04591      .   S
    C14    O486      1.04591  1_455   S
    C223   O487      1.05195      .   S
    C15    O487      1.05195      .   S
