# CIF file generated by openbabel 2.4.90, see http://openbabel.sf.net
data_I
_chemical_name_common ''
_cell_length_a 17.383
_cell_length_b 18.645
_cell_length_c 18.184
_cell_angle_alpha 90.398
_cell_angle_beta 90.035
_cell_angle_gamma 90.007
_space_group_name_H-M_alt 'P 1'
_space_group_name_Hall 'P 1'
loop_
    _symmetry_equiv_pos_as_xyz
    x,y,z
loop_
    _atom_site_label
    _atom_site_type_symbol
    _atom_site_fract_x
    _atom_site_fract_y
    _atom_site_fract_z
    _atom_site_occupancy
    Zn0     Zn   0.70015   0.18095   0.38453   1.000
    Zn1     Zn   0.82643   0.68088   0.88468   1.000
    Zn2     Zn   0.70004   0.17824   0.55958   1.000
    Zn3     Zn   0.69357   0.59391   0.97491   1.000
    Zn4     Zn   0.69320   0.76480   0.97196   1.000
    Zn5     Zn   0.83318   0.09417   0.47517   1.000
    Zn6     Zn   0.83348   0.26502   0.47172   1.000
    Zn7     Zn   0.17365   0.31846   0.11562   1.000
    Zn8     Zn   0.30008   0.82001   0.44034   1.000
    Zn9     Zn   0.17328   0.32163   0.94024   1.000
    Zn10    Zn   0.29996   0.81874   0.61560   1.000
    Zn11    Zn   0.30647   0.40427   0.02509   1.000
    Zn12    Zn   0.30686   0.23433   0.02815   1.000
    Zn13    Zn   0.16683   0.90392   0.52500   1.000
    Zn14    Zn   0.16645   0.73419   0.52832   1.000
    Zn15    Zn   0.82659   0.67810   0.05978   1.000
    C16     C    0.76378   0.31935   0.33391   1.000
    C17     C    0.75990   0.54327   0.11571   1.000
    C18     C    0.76019   0.81592   0.11302   1.000
    C19     C    0.76604   0.04122   0.33424   1.000
    O20     O    0.71307   0.53460   0.06225   1.000
    O21     O    0.80995   0.32780   0.38780   1.000
    O22     O    0.80675   0.59537   0.12430   1.000
    C23     C    0.76973   0.31526   0.61353   1.000
    C24     C    0.76294   0.53880   0.83645   1.000
    C25     C    0.75896   0.81785   0.83269   1.000
    C26     C    0.76436   0.04185   0.61415   1.000
    C27     C    0.96972   0.67871   0.97174   1.000
    C28     C    0.55015   0.67779   0.97239   1.000
    C29     C    0.55654   0.17762   0.47175   1.000
    C30     C    0.97624   0.17856   0.47259   1.000
    C31     C    0.23092   0.68350   0.38652   1.000
    C32     C    0.23887   0.45857   0.16522   1.000
    C33     C    0.24059   0.18073   0.16716   1.000
    C34     C    0.23530   0.95595   0.38538   1.000
    C35     C    0.23602   0.68056   0.66663   1.000
    C36     C    0.24002   0.45710   0.88553   1.000
    C37     C    0.23981   0.18396   0.88666   1.000
    C38     C    0.23402   0.95855   0.66540   1.000
    C39     C    0.03025   0.32240   0.02830   1.000
    C40     C    0.44996   0.32067   0.02776   1.000
    C41     C    0.44345   0.82128   0.52828   1.000
    C42     C    0.02359   0.81961   0.52797   1.000
    O43     O    0.71962   0.26557   0.32249   1.000
    O44     O    0.93609   0.67122   0.03373   1.000
    O45     O    0.81353   0.03374   0.38743   1.000
    O46     O    0.70967   0.82187   0.06235   1.000
    O47     O    0.72010   0.09368   0.32479   1.000
    O48     O    0.80989   0.76595   0.11908   1.000
    O49     O    0.58985   0.18150   0.40915   1.000
    O50     O    0.71380   0.53172   0.88826   1.000
    O51     O    0.81997   0.32172   0.56270   1.000
    O52     O    0.80965   0.59090   0.82811   1.000
    O53     O    0.71985   0.26543   0.61917   1.000
    O54     O    0.93647   0.68741   0.90957   1.000
    O55     O    0.81317   0.03454   0.56220   1.000
    O56     O    0.71376   0.82725   0.88724   1.000
    O57     O    0.71676   0.09350   0.62204   1.000
    O58     O    0.80312   0.76399   0.82179   1.000
    O59     O    0.59014   0.17493   0.53424   1.000
    O60     O    0.75979   0.67927   0.97226   1.000
    O61     O    0.58338   0.61725   0.98141   1.000
    O62     O    0.58368   0.73796   0.96233   1.000
    O63     O    0.76674   0.17959   0.47214   1.000
    O64     O    0.94299   0.11853   0.48440   1.000
    O65     O    0.94272   0.23812   0.45930   1.000
    O66     O    0.28669   0.46586   0.11238   1.000
    O67     O    0.18013   0.67793   0.43694   1.000
    O68     O    0.19311   0.40597   0.17482   1.000
    O69     O    0.28112   0.73306   0.38075   1.000
    O70     O    0.06357   0.31537   0.09066   1.000
    O71     O    0.18647   0.96286   0.43737   1.000
    O72     O    0.28636   0.17190   0.11293   1.000
    O73     O    0.28323   0.90458   0.37751   1.000
    O74     O    0.19614   0.23437   0.17796   1.000
    O75     O    0.40983   0.82506   0.46588   1.000
    O76     O    0.28730   0.46523   0.93871   1.000
    O77     O    0.19005   0.67189   0.61253   1.000
    O78     O    0.19278   0.40529   0.87700   1.000
    O79     O    0.28014   0.73437   0.67794   1.000
    O80     O    0.06375   0.32843   0.96607   1.000
    O81     O    0.18654   0.96576   0.61217   1.000
    O82     O    0.29030   0.17795   0.93735   1.000
    O83     O    0.28007   0.90616   0.67501   1.000
    O84     O    0.19014   0.23397   0.88062   1.000
    O85     O    0.41016   0.81584   0.59078   1.000
    O86     O    0.23990   0.31930   0.02781   1.000
    O87     O    0.41658   0.38113   0.01862   1.000
    O88     O    0.41658   0.26038   0.03765   1.000
    O89     O    0.23356   0.81903   0.52792   1.000
    O90     O    0.05695   0.87982   0.51739   1.000
    O91     O    0.05694   0.75977   0.54045   1.000
    Og92    Og   0.76307   0.33890   0.31542   1.000
    Og93    Og   0.75985   0.52436   0.13491   1.000
    Og94    Og   0.76053   0.83513   0.13228   1.000
    Og95    Og   0.76544   0.02166   0.31536   1.000
    Og96    Og   0.76952   0.33422   0.63305   1.000
    Og97    Og   0.76382   0.51927   0.81757   1.000
    Og98    Og   0.75937   0.83710   0.81384   1.000
    Og99    Og   0.76393   0.02265   0.63307   1.000
    Og100   Og   0.99828   0.67833   0.97190   1.000
    Og101   Og   0.52159   0.67791   0.97280   1.000
    Og102   Og   0.52796   0.17722   0.47190   1.000
    Og103   Og   0.00481   0.17868   0.47317   1.000
    Og104   Og   0.23129   0.66437   0.36719   1.000
    Og105   Og   0.23801   0.47817   0.18401   1.000
    Og106   Og   0.24011   0.16135   0.18592   1.000
    Og107   Og   0.23565   0.97518   0.36645   1.000
    Og108   Og   0.23668   0.66108   0.68522   1.000
    Og109   Og   0.24000   0.47604   0.86635   1.000
    Og110   Og   0.23949   0.16475   0.86738   1.000
    Og111   Og   0.23461   0.97814   0.68424   1.000
    Og112   Og   0.00170   0.32267   0.02818   1.000
    Og113   Og   0.47852   0.32069   0.02743   1.000
    Og114   Og   0.47202   0.82183   0.52813   1.000
    Og115   Og   0.99504   0.81956   0.52726   1.000
loop_
    _geom_bond_atom_site_label_1
    _geom_bond_atom_site_label_2
    _geom_bond_distance
    _geom_bond_site_symmetry_2
    _ccdc_geom_bond_type
    O87    Zn11      1.96561      .   S
    O87    C40       1.27972      .   S
    Zn11   O86       1.96264      .   S
    Zn11   O66       1.98280      .   S
    Zn11   O76       1.97336  1_554   S
    C40    O88       1.27884      .   S
    O86    Zn12      1.96603      .   S
    Zn12   O88       1.97534      .   S
    Zn12   O72       1.97082      .   S
    Zn12   O82       1.97213  1_554   S
    C39    O70       1.28049      .   S
    C39    O80       1.27857  1_554   S
    O44    Zn15      1.96577      .   S
    O44    C27       1.27861  1_554   S
    Zn15   O48       1.97630      .   S
    Zn15   O22       1.97488      .   S
    Zn15   O60       1.96973  1_554   S
    O20    C17       1.27691      .   S
    O20    Zn3       1.97072  1_554   S
    O46    C18       1.27787      .   S
    O46    Zn4       1.97246  1_554   S
    O70    Zn7       1.96719      .   S
    O66    C32       1.27885      .   S
    O72    C33       1.27715      .   S
    C18    O48       1.27585      .   S
    Zn7    O68       1.97744      .   S
    Zn7    O74       1.98001      .   S
    C17    O22       1.27640      .   S
    C32    O68       1.27568      .   S
    C33    O74       1.27814      .   S
    O43    C16       1.27853      .   S
    O43    Zn0       1.97520      .   S
    O47    C19       1.27531      .   S
    O47    Zn0       1.98092      .   S
    C16    O21       1.27519      .   S
    C19    O45       1.27960      .   S
    O73    C34       1.27690      .   S
    O73    Zn8       1.97545      .   S
    O69    C31       1.27583      .   S
    O69    Zn8       1.97124      .   S
    Zn0    O49       1.96915      .   S
    C34    O71       1.27673      .   S
    C31    O67       1.27800      .   S
    O45    Zn5       1.97630      .   S
    O21    Zn6       1.97238      .   S
    O49    C29       1.27999      .   S
    O67    Zn14      1.97343      .   S
    O71    Zn13      1.97187      .   S
    Zn8    O75       1.96542      .   S
    O65    Zn6       1.97682      .   S
    O65    C30       1.27869      .   S
    O75    C41       1.27840      .   S
    Zn6    O51       1.97124      .   S
    C29    O59       1.27861      .   S
    O63    Zn5       1.96851      .   S
    O63    Zn2       1.96879      .   S
    C30    O64       1.27915      .   S
    Zn5    O64       1.96898      .   S
    Zn5    O55       1.97141      .   S
    O90    Zn13      1.96668      .   S
    O90    C42       1.27924      .   S
    Zn13   O89       1.96347      .   S
    Zn13   O81       1.98325      .   S
    O89    Zn14      1.96537      .   S
    C42    O91       1.27905      .   S
    C41    O85       1.28029      .   S
    Zn14   O91       1.97473      .   S
    Zn14   O77       1.97145      .   S
    O59    Zn2       1.96575      .   S
    Zn2    O53       1.97741      .   S
    Zn2    O57       1.97369      .   S
    O55    C26       1.27666      .   S
    O51    C23       1.27829      .   S
    O85    Zn10      1.96901      .   S
    O81    C38       1.27943      .   S
    O77    C35       1.27647      .   S
    C23    O53       1.27546      .   S
    C26    O57       1.27724      .   S
    Zn10   O83       1.97976      .   S
    Zn10   O79       1.97574      .   S
    C38    O83       1.27585      .   S
    C35    O79       1.27827      .   S
    O58    C25       1.27843      .   S
    O58    Zn1       1.97423      .   S
    O52    C24       1.27590      .   S
    O52    Zn1       1.98325      .   S
    C25    O56       1.27693      .   S
    C24    O50       1.27955      .   S
    O78    C36       1.27651      .   S
    O78    Zn9       1.97368      .   S
    O84    C37       1.27610      .   S
    O84    Zn9       1.97704      .   S
    Zn1    O54       1.96892      .   S
    C36    O76       1.27695      .   S
    C37    O82       1.27779      .   S
    O56    Zn4       1.97031      .   S
    O50    Zn3       1.98143      .   S
    O54    C27       1.28070      .   S
    Zn9    O80       1.96525      .   S
    O62    Zn4       1.97577      .   S
    O62    C28       1.27849      .   S
    O60    Zn3       1.96504      .   S
    C28    O61       1.27955      .   S
    Zn3    O61       1.96783      .   S
    O60    Zn1       1.97028      .   S
    O60    Zn4       1.97069      .   S
    O63    Zn0       1.96896      .   S
    O63    Zn6       1.97045      .   S
    O86    Zn7       1.96943      .   S
    O86    Zn9       1.96912  1_554   S
    O89    Zn8       1.96878      .   S
    O89    Zn10      1.96778      .   S
    C16    Og92      0.49778      .   S
    C17    Og93      0.49787      .   S
    C18    Og94      0.49930      .   S
    C19    Og95      0.49921      .   S
    C23    Og96      0.49919      .   S
    C24    Og97      0.49899      .   S
    C25    Og98      0.49805      .   S
    C26    Og99      0.49831      .   S
    C27    Og100     0.49648      .   S
    C28    Og101     0.49655      .   S
    C29    Og102     0.49681      .   S
    C30    Og103     0.49661  1_655   S
    C31    Og104     0.49910      .   S
    C32    Og105     0.49883      .   S
    C33    Og106     0.49869      .   S
    C34    Og107     0.49872      .   S
    C35    Og108     0.49798      .   S
    C36    Og109     0.49800      .   S
    C37    Og110     0.49951      .   S
    C38    Og111     0.49913      .   S
    C39    Og112     0.49640      .   S
    C40    Og113     0.49644      .   S
    C41    Og114     0.49672      .   S
    C42    Og115     0.49645  1_455   S
