# CIF file generated by openbabel 2.4.90, see http://openbabel.sf.net
data_I
_chemical_name_common ''
_cell_length_a 17.383
_cell_length_b 18.645
_cell_length_c 18.184
_cell_angle_alpha 90.398
_cell_angle_beta 90.035
_cell_angle_gamma 90.007
_space_group_name_H-M_alt 'P 1'
_space_group_name_Hall 'P 1'
loop_
    _symmetry_equiv_pos_as_xyz
    x,y,z
loop_
    _atom_site_label
    _atom_site_type_symbol
    _atom_site_fract_x
    _atom_site_fract_y
    _atom_site_fract_z
    _atom_site_occupancy
    C0      C    0.76378   0.31935   0.33391   1.000
    C1      C    0.75990   0.54327   0.11571   1.000
    C2      C    0.76019   0.81592   0.11302   1.000
    C3      C    0.76604   0.04122   0.33424   1.000
    C4      C    0.76973   0.31526   0.61353   1.000
    C5      C    0.76294   0.53880   0.83645   1.000
    C6      C    0.75896   0.81785   0.83269   1.000
    C7      C    0.76436   0.04185   0.61415   1.000
    C8      C    0.96972   0.67871   0.97174   1.000
    C9      C    0.55015   0.67779   0.97239   1.000
    C10     C    0.55654   0.17762   0.47175   1.000
    C11     C    0.97624   0.17856   0.47259   1.000
    C12     C    0.23092   0.68350   0.38652   1.000
    C13     C    0.23887   0.45857   0.16522   1.000
    C14     C    0.24059   0.18073   0.16716   1.000
    C15     C    0.23530   0.95595   0.38538   1.000
    C16     C    0.23602   0.68056   0.66663   1.000
    C17     C    0.24002   0.45710   0.88553   1.000
    C18     C    0.23981   0.18396   0.88666   1.000
    C19     C    0.23402   0.95855   0.66540   1.000
    C20     C    0.03025   0.32240   0.02830   1.000
    C21     C    0.44996   0.32067   0.02776   1.000
    C22     C    0.44345   0.82128   0.52828   1.000
    C23     C    0.02359   0.81961   0.52797   1.000
