# CIF file generated by openbabel 2.4.90, see http://openbabel.sf.net
data_I
_chemical_name_common ''
_cell_length_a 17.383
_cell_length_b 18.645
_cell_length_c 18.184
_cell_angle_alpha 90.398
_cell_angle_beta 90.035
_cell_angle_gamma 90.007
_space_group_name_H-M_alt 'P 1'
_space_group_name_Hall 'P 1'
loop_
    _symmetry_equiv_pos_as_xyz
    x,y,z
loop_
    _atom_site_label
    _atom_site_type_symbol
    _atom_site_fract_x
    _atom_site_fract_y
    _atom_site_fract_z
    _atom_site_occupancy
    Zr0     Zr   0.82659   0.67810   0.05978   1.000
    Zr1     Zr   0.70015   0.18095   0.38453   1.000
    Zr2     Zr   0.82643   0.68088   0.88468   1.000
    Zr3     Zr   0.70004   0.17824   0.55958   1.000
    Zr4     Zr   0.69357   0.59391   0.97491   1.000
    Zr5     Zr   0.69320   0.76480   0.97196   1.000
    Zr6     Zr   0.83318   0.09417   0.47517   1.000
    Zr7     Zr   0.83348   0.26502   0.47172   1.000
    Zr8     Zr   0.17365   0.31846   0.11562   1.000
    Zr9     Zr   0.30008   0.82001   0.44034   1.000
    Zr10    Zr   0.17328   0.32163   0.94024   1.000
    Zr11    Zr   0.29996   0.81874   0.61560   1.000
    Zr12    Zr   0.30647   0.40427   0.02509   1.000
    Zr13    Zr   0.30686   0.23433   0.02815   1.000
    Zr14    Zr   0.16683   0.90392   0.52500   1.000
    Zr15    Zr   0.16645   0.73419   0.52832   1.000
    Zr16    Zr   0.76378   0.31935   0.33391   1.000
    Zr17    Zr   0.75990   0.54327   0.11571   1.000
    Zr18    Zr   0.76019   0.81592   0.11302   1.000
    Zr19    Zr   0.76604   0.04122   0.33424   1.000
    Zr20    Zr   0.76973   0.31526   0.61353   1.000
    Zr21    Zr   0.76294   0.53880   0.83645   1.000
    Zr22    Zr   0.75896   0.81785   0.83269   1.000
    Zr23    Zr   0.76436   0.04185   0.61415   1.000
    Zr24    Zr   0.96972   0.67871   0.97174   1.000
    Zr25    Zr   0.55015   0.67779   0.97239   1.000
    Zr26    Zr   0.55654   0.17762   0.47175   1.000
    Zr27    Zr   0.97624   0.17856   0.47259   1.000
    Zr28    Zr   0.23092   0.68350   0.38652   1.000
    Zr29    Zr   0.23887   0.45857   0.16522   1.000
    Zr30    Zr   0.24059   0.18073   0.16716   1.000
    Zr31    Zr   0.23530   0.95595   0.38538   1.000
    Zr32    Zr   0.23602   0.68056   0.66663   1.000
    Zr33    Zr   0.24002   0.45710   0.88553   1.000
    Zr34    Zr   0.23981   0.18396   0.88666   1.000
    Zr35    Zr   0.23402   0.95855   0.66540   1.000
    Zr36    Zr   0.03025   0.32240   0.02830   1.000
    Zr37    Zr   0.44996   0.32067   0.02776   1.000
    Zr38    Zr   0.44345   0.82128   0.52828   1.000
    Zr39    Zr   0.02359   0.81961   0.52797   1.000
    Zr40    Zr   0.71307   0.53460   0.06225   1.000
    Zr41    Zr   0.80995   0.32780   0.38780   1.000
    Zr42    Zr   0.80675   0.59537   0.12430   1.000
    Zr43    Zr   0.71962   0.26557   0.32249   1.000
    Zr44    Zr   0.93609   0.67122   0.03373   1.000
    Zr45    Zr   0.81353   0.03374   0.38743   1.000
    Zr46    Zr   0.70967   0.82187   0.06235   1.000
    Zr47    Zr   0.72010   0.09368   0.32479   1.000
    Zr48    Zr   0.80989   0.76595   0.11908   1.000
    Zr49    Zr   0.58985   0.18150   0.40915   1.000
    Zr50    Zr   0.71380   0.53172   0.88826   1.000
    Zr51    Zr   0.81997   0.32172   0.56270   1.000
    Zr52    Zr   0.80965   0.59090   0.82811   1.000
    Zr53    Zr   0.71985   0.26543   0.61917   1.000
    Zr54    Zr   0.93647   0.68741   0.90957   1.000
    Zr55    Zr   0.81317   0.03454   0.56220   1.000
    Zr56    Zr   0.71376   0.82725   0.88724   1.000
    Zr57    Zr   0.71676   0.09350   0.62204   1.000
    Zr58    Zr   0.80312   0.76399   0.82179   1.000
    Zr59    Zr   0.59014   0.17493   0.53424   1.000
    Zr60    Zr   0.75979   0.67927   0.97226   1.000
    Zr61    Zr   0.58338   0.61725   0.98141   1.000
    Zr62    Zr   0.58368   0.73796   0.96233   1.000
    Zr63    Zr   0.76674   0.17959   0.47214   1.000
    Zr64    Zr   0.94299   0.11853   0.48440   1.000
    Zr65    Zr   0.94272   0.23812   0.45930   1.000
    Zr66    Zr   0.28669   0.46586   0.11238   1.000
    Zr67    Zr   0.18013   0.67793   0.43694   1.000
    Zr68    Zr   0.19311   0.40597   0.17482   1.000
    Zr69    Zr   0.28112   0.73306   0.38075   1.000
    Zr70    Zr   0.06357   0.31537   0.09066   1.000
    Zr71    Zr   0.18647   0.96286   0.43737   1.000
    Zr72    Zr   0.28636   0.17190   0.11293   1.000
    Zr73    Zr   0.28323   0.90458   0.37751   1.000
    Zr74    Zr   0.19614   0.23437   0.17796   1.000
    Zr75    Zr   0.40983   0.82506   0.46588   1.000
    Zr76    Zr   0.28730   0.46523   0.93871   1.000
    Zr77    Zr   0.19005   0.67189   0.61253   1.000
    Zr78    Zr   0.19278   0.40529   0.87700   1.000
    Zr79    Zr   0.28014   0.73437   0.67794   1.000
    Zr80    Zr   0.06375   0.32843   0.96607   1.000
    Zr81    Zr   0.18654   0.96576   0.61217   1.000
    Zr82    Zr   0.29030   0.17795   0.93735   1.000
    Zr83    Zr   0.28007   0.90616   0.67501   1.000
    Zr84    Zr   0.19014   0.23397   0.88062   1.000
    Zr85    Zr   0.41016   0.81584   0.59078   1.000
    Zr86    Zr   0.23990   0.31930   0.02781   1.000
    Zr87    Zr   0.41658   0.38113   0.01862   1.000
    Zr88    Zr   0.41658   0.26038   0.03765   1.000
    Zr89    Zr   0.23356   0.81903   0.52792   1.000
    Zr90    Zr   0.05695   0.87982   0.51739   1.000
    Zr91    Zr   0.05694   0.75977   0.54045   1.000
    O92     O    0.36153   0.39270   0.02185   1.000
    O93     O    0.43327   0.35090   0.02319   1.000
    O94     O    0.27318   0.36179   0.02645   1.000
    O95     O    0.29658   0.43507   0.06873   1.000
    O96     O    0.29689   0.43475   0.98190   1.000
    O97     O    0.43327   0.29053   0.03270   1.000
    O98     O    0.27338   0.27682   0.02798   1.000
    O99     O    0.36172   0.24736   0.03290   1.000
    O100    O    0.29661   0.20312   0.07054   1.000
    O101    O    0.29858   0.20614   0.98275   1.000
    O102    O    0.04691   0.31888   0.05948   1.000
    O103    O    0.04700   0.32542   0.99718   1.000
    O104    O    0.88134   0.67466   0.04675   1.000
    O105    O    0.95291   0.67497   0.00273   1.000
    O106    O    0.81824   0.72203   0.08943   1.000
    O107    O    0.81667   0.63674   0.09204   1.000
    O108    O    0.79319   0.67869   0.01602   1.000
    O109    O    0.73649   0.53893   0.08898   1.000
    O110    O    0.70332   0.56425   0.01858   1.000
    O111    O    0.73493   0.81889   0.08768   1.000
    O112    O    0.70144   0.79334   0.01715   1.000
    O113    O    0.11861   0.31692   0.10314   1.000
    O114    O    0.26278   0.46221   0.13880   1.000
    O115    O    0.26347   0.17631   0.14005   1.000
    O116    O    0.78504   0.79093   0.11605   1.000
    O117    O    0.18338   0.36221   0.14522   1.000
    O118    O    0.18489   0.27641   0.14679   1.000
    O119    O    0.78333   0.56932   0.12000   1.000
    O120    O    0.21599   0.43227   0.17002   1.000
    O121    O    0.21836   0.20755   0.17256   1.000
    O122    O    0.74170   0.29246   0.32820   1.000
    O123    O    0.70988   0.22326   0.35351   1.000
    O124    O    0.74307   0.06745   0.32951   1.000
    O125    O    0.71012   0.13731   0.35466   1.000
    O126    O    0.78686   0.32358   0.36085   1.000
    O127    O    0.78979   0.03748   0.36083   1.000
    O128    O    0.25927   0.93027   0.38144   1.000
    O129    O    0.29165   0.86230   0.40892   1.000
    O130    O    0.25602   0.70828   0.38363   1.000
    O131    O    0.29060   0.77654   0.41054   1.000
    O132    O    0.64500   0.18123   0.39684   1.000
    O133    O    0.21089   0.95941   0.41137   1.000
    O134    O    0.20552   0.68071   0.41173   1.000
    O135    O    0.82335   0.06396   0.43130   1.000
    O136    O    0.82171   0.29641   0.42976   1.000
    O137    O    0.57320   0.17956   0.44045   1.000
    O138    O    0.17329   0.70606   0.48263   1.000
    O139    O    0.17665   0.93339   0.48118   1.000
    O140    O    0.35495   0.82254   0.45311   1.000
    O141    O    0.88810   0.25157   0.46551   1.000
    O142    O    0.95948   0.20834   0.46594   1.000
    O143    O    0.42664   0.82317   0.49708   1.000
    O144    O    0.82672   0.29337   0.51721   1.000
    O145    O    0.57334   0.17628   0.50299   1.000
    O146    O    0.79996   0.13688   0.47365   1.000
    O147    O    0.73339   0.17892   0.51586   1.000
    O148    O    0.95962   0.14855   0.47849   1.000
    O149    O    0.88809   0.10635   0.47978   1.000
    O150    O    0.82317   0.06436   0.51868   1.000
    O151    O    0.11189   0.89187   0.52119   1.000
    O152    O    0.04027   0.84971   0.52268   1.000
    O153    O    0.20019   0.86148   0.52646   1.000
    O154    O    0.17668   0.93484   0.56858   1.000
    O155    O    0.20001   0.77661   0.52812   1.000
    O156    O    0.04026   0.78969   0.53421   1.000
    O157    O    0.42681   0.81856   0.55953   1.000
    O158    O    0.11170   0.74698   0.53438   1.000
    O159    O    0.17825   0.70304   0.57042   1.000
    O160    O    0.64509   0.17659   0.54691   1.000
    O161    O    0.70994   0.22183   0.58937   1.000
    O162    O    0.70840   0.13587   0.59081   1.000
    O163    O    0.78877   0.03820   0.58817   1.000
    O164    O    0.79485   0.31849   0.58811   1.000
    O165    O    0.35506   0.81729   0.60319   1.000
    O166    O    0.21028   0.96215   0.63878   1.000
    O167    O    0.21303   0.67622   0.63958   1.000
    O168    O    0.74479   0.29034   0.61635   1.000
    O169    O    0.74056   0.06768   0.61809   1.000
    O170    O    0.29002   0.86245   0.64530   1.000
    O171    O    0.29005   0.77656   0.64677   1.000
    O172    O    0.25704   0.93236   0.67020   1.000
    O173    O    0.25808   0.70746   0.67228   1.000
    O174    O    0.78104   0.79092   0.82724   1.000
    O175    O    0.81478   0.72244   0.85323   1.000
    O176    O    0.78629   0.56485   0.83228   1.000
    O177    O    0.81804   0.63589   0.85639   1.000
    O178    O    0.73636   0.82255   0.85996   1.000
    O179    O    0.73837   0.53526   0.86235   1.000
    O180    O    0.21640   0.43119   0.88126   1.000
    O181    O    0.18303   0.36346   0.90862   1.000
    O182    O    0.21498   0.20896   0.88364   1.000
    O183    O    0.18171   0.27780   0.91043   1.000
    O184    O    0.88145   0.68415   0.89713   1.000
    O185    O    0.26366   0.46117   0.91212   1.000
    O186    O    0.26506   0.18096   0.91200   1.000
    O187    O    0.70348   0.79603   0.92960   1.000
    O188    O    0.70369   0.56281   0.93158   1.000
    O189    O    0.95310   0.68306   0.94065   1.000
    O190    O    0.11851   0.32503   0.95316   1.000
    O191    O    0.63844   0.75138   0.96714   1.000
    O192    O    0.56692   0.70788   0.96736   1.000
    O193    O    0.72668   0.63659   0.97358   1.000
    O194    O    0.56676   0.64752   0.97690   1.000
    O195    O    0.63847   0.60558   0.97816   1.000
    O196    O    0.79311   0.68008   0.92847   1.000
    O197    O    0.72650   0.72204   0.97211   1.000
    O198    O    0.73345   0.18027   0.42833   1.000
    O199    O    0.80011   0.22231   0.47193   1.000
    O200    O    0.20678   0.31888   0.07171   1.000
    O201    O    0.20659   0.32047   0.98402   1.000
    O202    O    0.26682   0.81952   0.48413   1.000
    O203    O    0.26676   0.81889   0.57176   1.000
    N204    N    0.76743   0.42605   0.72601   1.000
    O205    O    0.76585   0.46778   0.76707   1.000
    O206    O    0.76842   0.38487   0.68441   1.000
    N207    N    0.74014   0.32178   0.02651   1.000
    O208    O    0.86378   0.32230   0.02732   1.000
    O209    O    0.61647   0.32124   0.02689   1.000
    N210    N    0.23769   0.06803   0.27594   1.000
    O211    O    0.23878   0.10985   0.23562   1.000
    O212    O    0.23676   0.02641   0.31646   1.000
    N213    N    0.23915   0.56784   0.77502   1.000
    O214    O    0.23957   0.52667   0.81589   1.000
    O215    O    0.23808   0.60959   0.73477   1.000
    N216    N    0.73360   0.82150   0.52571   1.000
    O217    O    0.60995   0.82181   0.52689   1.000
    O218    O    0.85718   0.82052   0.52631   1.000
    N219    N    0.76051   0.43248   0.22607   1.000
    O220    O    0.76017   0.47369   0.18529   1.000
    O221    O    0.76161   0.39058   0.26612   1.000
    N222    N    0.25991   0.67804   0.97392   1.000
    O223    O    0.13623   0.67809   0.97295   1.000
    O224    O    0.38361   0.67800   0.97346   1.000
    N225    N    0.76268   0.92796   0.22425   1.000
    O226    O    0.76391   0.96992   0.26509   1.000
    O227    O    0.76169   0.88635   0.18308   1.000
    N228    N    0.23737   0.07191   0.77533   1.000
    O229    O    0.23835   0.11353   0.81653   1.000
    O230    O    0.23614   0.02992   0.73450   1.000
    N231    N    0.76165   0.92998   0.72358   1.000
    O232    O    0.76061   0.88835   0.76400   1.000
    O233    O    0.76268   0.97151   0.68306   1.000
    N234    N    0.26632   0.17760   0.47414   1.000
    O235    O    0.39000   0.17731   0.47306   1.000
    O236    O    0.14271   0.17817   0.47380   1.000
    N237    N    0.23412   0.57182   0.27502   1.000
    O238    O    0.23280   0.61331   0.31628   1.000
    O239    O    0.23585   0.52989   0.23422   1.000
loop_
    _geom_bond_atom_site_label_1
    _geom_bond_atom_site_label_2
    _geom_bond_distance
    _geom_bond_site_symmetry_2
    _ccdc_geom_bond_type
    Zr87   O92       0.98281      .   S
    Zr12   O92       0.98281      .   S
    Zr87   O93       0.63986      .   S
    Zr37   O93       0.63986      .   S
    Zr12   O94       0.98132      .   S
    Zr86   O94       0.98132      .   S
    Zr12   O95       0.99140      .   S
    Zr66   O95       0.99140      .   S
    Zr12   O96       0.98668  1_554   S
    Zr76   O96       0.98668      .   S
    Zr37   O97       0.63942      .   S
    Zr88   O97       0.63942      .   S
    Zr86   O98       0.98301      .   S
    Zr13   O98       0.98301      .   S
    Zr13   O99       0.98767      .   S
    Zr88   O99       0.98767      .   S
    Zr13   O100      0.98541      .   S
    Zr72   O100      0.98541      .   S
    Zr13   O101      0.98606  1_554   S
    Zr82   O101      0.98606      .   S
    Zr36   O102      0.64024      .   S
    Zr70   O102      0.64024      .   S
    Zr36   O103      0.63929  1_554   S
    Zr80   O103      0.63929      .   S
    Zr44   O104      0.98288      .   S
    Zr0    O104      0.98288      .   S
    Zr44   O105      0.63931      .   S
    Zr24   O105      0.63931  1_556   S
    Zr0    O106      0.98815      .   S
    Zr48   O106      0.98815      .   S
    Zr0    O107      0.98744      .   S
    Zr42   O107      0.98744      .   S
    Zr0    O108      0.98487      .   S
    Zr60   O108      0.98487  1_556   S
    Zr40   O109      0.63845      .   S
    Zr17   O109      0.63845      .   S
    Zr40   O110      0.98536      .   S
    Zr4    O110      0.98536  1_556   S
    Zr46   O111      0.63894      .   S
    Zr18   O111      0.63894      .   S
    Zr46   O112      0.98623      .   S
    Zr5    O112      0.98623  1_556   S
    Zr70   O113      0.98359      .   S
    Zr8    O113      0.98359      .   S
    Zr66   O114      0.63943      .   S
    Zr29   O114      0.63943      .   S
    Zr72   O115      0.63857      .   S
    Zr30   O115      0.63857      .   S
    Zr18   O116      0.63793      .   S
    Zr48   O116      0.63793      .   S
    Zr8    O117      0.98872      .   S
    Zr68   O117      0.98872      .   S
    Zr8    O118      0.99000      .   S
    Zr74   O118      0.99000      .   S
    Zr17   O119      0.63820      .   S
    Zr42   O119      0.63820      .   S
    Zr29   O120      0.63784      .   S
    Zr68   O120      0.63784      .   S
    Zr30   O121      0.63907      .   S
    Zr74   O121      0.63907      .   S
    Zr43   O122      0.63926      .   S
    Zr16   O122      0.63926      .   S
    Zr43   O123      0.98760      .   S
    Zr1    O123      0.98760      .   S
    Zr47   O124      0.63765      .   S
    Zr19   O124      0.63765      .   S
    Zr47   O125      0.99046      .   S
    Zr1    O125      0.99046      .   S
    Zr16   O126      0.63760      .   S
    Zr41   O126      0.63760      .   S
    Zr19   O127      0.63980      .   S
    Zr45   O127      0.63980      .   S
    Zr73   O128      0.63845      .   S
    Zr31   O128      0.63845      .   S
    Zr73   O129      0.98772      .   S
    Zr9    O129      0.98772      .   S
    Zr69   O130      0.63791      .   S
    Zr28   O130      0.63791      .   S
    Zr69   O131      0.98562      .   S
    Zr9    O131      0.98562      .   S
    Zr1    O132      0.98457      .   S
    Zr49   O132      0.98457      .   S
    Zr31   O133      0.63837      .   S
    Zr71   O133      0.63837      .   S
    Zr28   O134      0.63900      .   S
    Zr67   O134      0.63900      .   S
    Zr45   O135      0.98815      .   S
    Zr6    O135      0.98815      .   S
    Zr41   O136      0.98619      .   S
    Zr7    O136      0.98619      .   S
    Zr49   O137      0.64000      .   S
    Zr26   O137      0.64000      .   S
    Zr67   O138      0.98671      .   S
    Zr15   O138      0.98671      .   S
    Zr71   O139      0.98594      .   S
    Zr14   O139      0.98594      .   S
    Zr9    O140      0.98271      .   S
    Zr75   O140      0.98271      .   S
    Zr65   O141      0.98841      .   S
    Zr7    O141      0.98841      .   S
    Zr65   O142      0.63934      .   S
    Zr27   O142      0.63934      .   S
    Zr75   O143      0.63920      .   S
    Zr38   O143      0.63920      .   S
    Zr7    O144      0.98562      .   S
    Zr51   O144      0.98562      .   S
    Zr26   O145      0.63931      .   S
    Zr59   O145      0.63931      .   S
    Zr63   O146      0.98425      .   S
    Zr6    O146      0.98425      .   S
    Zr63   O147      0.98439      .   S
    Zr3    O147      0.98439      .   S
    Zr27   O148      0.63957      .   S
    Zr64   O148      0.63957      .   S
    Zr6    O149      0.98449      .   S
    Zr64   O149      0.98449      .   S
    Zr6    O150      0.98570      .   S
    Zr55   O150      0.98570      .   S
    Zr90   O151      0.98334      .   S
    Zr14   O151      0.98334      .   S
    Zr90   O152      0.63962      .   S
    Zr39   O152      0.63962      .   S
    Zr14   O153      0.98173      .   S
    Zr89   O153      0.98173      .   S
    Zr14   O154      0.99162      .   S
    Zr81   O154      0.99162      .   S
    Zr89   O155      0.98268      .   S
    Zr15   O155      0.98268      .   S
    Zr39   O156      0.63952      .   S
    Zr91   O156      0.63952      .   S
    Zr38   O157      0.64014      .   S
    Zr85   O157      0.64014      .   S
    Zr15   O158      0.98736      .   S
    Zr91   O158      0.98736      .   S
    Zr15   O159      0.98572      .   S
    Zr77   O159      0.98572      .   S
    Zr59   O160      0.98287      .   S
    Zr3    O160      0.98287      .   S
    Zr3    O161      0.98870      .   S
    Zr53   O161      0.98870      .   S
    Zr3    O162      0.98685      .   S
    Zr57   O162      0.98685      .   S
    Zr55   O163      0.63833      .   S
    Zr23   O163      0.63833      .   S
    Zr51   O164      0.63915      .   S
    Zr20   O164      0.63915      .   S
    Zr85   O165      0.98450      .   S
    Zr11   O165      0.98450      .   S
    Zr81   O166      0.63972      .   S
    Zr35   O166      0.63972      .   S
    Zr77   O167      0.63823      .   S
    Zr32   O167      0.63823      .   S
    Zr20   O168      0.63773      .   S
    Zr53   O168      0.63773      .   S
    Zr23   O169      0.63862      .   S
    Zr57   O169      0.63862      .   S
    Zr11   O170      0.98988      .   S
    Zr83   O170      0.98988      .   S
    Zr11   O171      0.98787      .   S
    Zr79   O171      0.98787      .   S
    Zr35   O172      0.63793      .   S
    Zr83   O172      0.63793      .   S
    Zr32   O173      0.63913      .   S
    Zr79   O173      0.63913      .   S
    Zr58   O174      0.63922      .   S
    Zr22   O174      0.63922      .   S
    Zr58   O175      0.98711      .   S
    Zr2    O175      0.98711      .   S
    Zr52   O176      0.63795      .   S
    Zr21   O176      0.63795      .   S
    Zr52   O177      0.99162      .   S
    Zr2    O177      0.99162      .   S
    Zr22   O178      0.63846      .   S
    Zr56   O178      0.63846      .   S
    Zr21   O179      0.63978      .   S
    Zr50   O179      0.63978      .   S
    Zr78   O180      0.63825      .   S
    Zr33   O180      0.63825      .   S
    Zr78   O181      0.98684      .   S
    Zr10   O181      0.98684      .   S
    Zr84   O182      0.63805      .   S
    Zr34   O182      0.63805      .   S
    Zr84   O183      0.98852      .   S
    Zr10   O183      0.98852      .   S
    Zr2    O184      0.98446      .   S
    Zr54   O184      0.98446      .   S
    Zr33   O185      0.63848      .   S
    Zr76   O185      0.63848      .   S
    Zr34   O186      0.63890      .   S
    Zr82   O186      0.63890      .   S
    Zr56   O187      0.98516      .   S
    Zr5    O187      0.98516      .   S
    Zr50   O188      0.99072      .   S
    Zr4    O188      0.99072      .   S
    Zr54   O189      0.64035      .   S
    Zr24   O189      0.64035      .   S
    Zr10   O190      0.98263      .   S
    Zr80   O190      0.98263      .   S
    Zr62   O191      0.98789      .   S
    Zr5    O191      0.98789      .   S
    Zr62   O192      0.63925      .   S
    Zr25   O192      0.63925      .   S
    Zr60   O193      0.98252      .   S
    Zr4    O193      0.98252      .   S
    Zr25   O194      0.63977      .   S
    Zr61   O194      0.63977      .   S
    Zr4    O195      0.98391      .   S
    Zr61   O195      0.98391      .   S
    Zr60   O196      0.98514      .   S
    Zr2    O196      0.98514      .   S
    Zr60   O197      0.98535      .   S
    Zr5    O197      0.98535      .   S
    Zr63   O198      0.98448      .   S
    Zr1    O198      0.98448      .   S
    Zr63   O199      0.98523      .   S
    Zr7    O199      0.98523      .   S
    Zr86   O200      0.98471      .   S
    Zr8    O200      0.98471      .   S
    Zr86   O201      0.98456  1_554   S
    Zr10   O201      0.98456      .   S
    Zr89   O202      0.98439      .   S
    Zr9    O202      0.98439      .   S
    Zr89   O203      0.98389      .   S
    Zr11   O203      0.98389      .   S
    N204   O205      1.07494      .   S
    Zr21   O205      1.82340      .   S
    N204   O206      1.07421      .   S
    Zr20   O206      1.82295      .   S
    N207   O208      2.14933      .   S
    Zr36   O208      2.89387  1_455   S
    N207   O209      2.14977      .   S
    Zr37   O209      2.89441      .   S
    N210   O211      1.07410      .   S
    Zr30   O211      1.82214      .   S
    N210   O212      1.07394      .   S
    Zr31   O212      1.82202  1_565   S
    N213   O214      1.07210      .   S
    Zr33   O214      1.81907      .   S
    N213   O215      1.07237      .   S
    Zr32   O215      1.81933      .   S
    N216   O217      2.14948      .   S
    Zr38   O217      2.89441      .   S
    N216   O218      2.14835      .   S
    Zr39   O218      2.89287  1_455   S
    N219   O220      1.07159      .   S
    Zr17   O220      1.81835      .   S
    N219   O221      1.07195      .   S
    Zr16   O221      1.81860      .   S
    N222   O223      2.14992      .   S
    Zr24   O223      2.89459  1_655   S
    N222   O224      2.15027      .   S
    Zr25   O224      2.89506      .   S
    N225   O226      1.07506      .   S
    Zr19   O226      1.82387  1_545   S
    N225   O227      1.07451      .   S
    Zr18   O227      1.82345      .   S
    N228   O229      1.07499      .   S
    Zr34   O229      1.82424      .   S
    N228   O230      1.07550      .   S
    Zr35   O230      1.82419  1_565   S
    N231   O232      1.07278      .   S
    Zr22   O232      1.81985      .   S
    N231   O233      1.07283      .   S
    Zr23   O233      1.82030  1_545   S
    N234   O235      2.14995      .   S
    Zr26   O235      2.89508      .   S
    N234   O236      2.14888      .   S
    Zr27   O236      2.89367  1_655   S
    N237   O238      1.07407      .   S
    Zr28   O238      1.82270      .   S
    N237   O239      1.07450      .   S
    Zr29   O239      1.82273      .   S
