# CIF file generated by openbabel 2.4.90, see http://openbabel.sf.net
data_I
_chemical_name_common ''
_cell_length_a 12.396
_cell_length_b 20.153
_cell_length_c 20.225
_cell_angle_alpha 102.717
_cell_angle_beta 94.698
_cell_angle_gamma 94.474
_space_group_name_H-M_alt 'P 1'
_space_group_name_Hall 'P 1'
loop_
    _symmetry_equiv_pos_as_xyz
    x,y,z
loop_
    _atom_site_label
    _atom_site_type_symbol
    _atom_site_fract_x
    _atom_site_fract_y
    _atom_site_fract_z
    _atom_site_occupancy
    Zn0     Zn   0.61626   0.66407   0.15020   1.000
    Zn1     Zn   0.91674   0.20002   0.92677   1.000
    Zn2     Zn   0.00878   0.34957   0.08580   1.000
    Zn3     Zn   0.30555   0.11405   0.60870   1.000
    Zn4     Zn   0.11612   0.15052   0.66300   1.000
    Zn5     Zn   0.41679   0.92793   0.19818   1.000
    Zn6     Zn   0.50880   0.08533   0.34984   1.000
    H7      H    0.52149   0.72722   0.28106   1.000
    H8      H    0.43767   0.65008   0.24318   1.000
    H9      H    0.30122   0.83718   0.28138   1.000
    H10     H    0.44299   0.83432   0.30326   1.000
    H11     H    0.31839   0.79733   0.09733   1.000
    H12     H    0.22845   0.81511   0.16260   1.000
    H13     H    0.18862   0.73331   0.22936   1.000
    H14     H    0.24662   0.65326   0.21241   1.000
    H15     H    0.36394   0.62832   0.12507   1.000
    H16     H    0.39578   0.68882   0.07500   1.000
    H17     H    0.50931   0.79440   0.12659   1.000
    H18     H    0.56384   0.80985   0.21351   1.000
    H19     H    0.03867   0.59706   0.18245   1.000
    H20     H    0.05827   0.64824   0.12183   1.000
    H21     H    0.85892   0.46216   0.06520   1.000
    H22     H    0.92483   0.48984   0.14949   1.000
    H23     H    0.96800   0.61096   0.00727   1.000
    H24     H    0.88431   0.53175   0.98300   1.000
    H25     H    0.19890   0.46294   0.10063   1.000
    H26     H    0.12130   0.48995   0.17000   1.000
    H27     H    0.16224   0.61208   0.02911   1.000
    H28     H    0.22239   0.53315   0.01892   1.000
    H29     H    0.96571   0.42572   0.97028   1.000
    H30     H    0.10973   0.42600   0.98589   1.000
    H31     H    0.65141   0.84148   0.06101   1.000
    Zn32    Zn   0.80551   0.60889   0.11389   1.000
    H33     H    0.62565   0.95698   0.04429   1.000
    H34     H    0.69042   0.05853   0.00096   1.000
    H35     H    0.96039   0.95628   0.92257   1.000
    H36     H    0.99063   0.84151   0.94394   1.000
    H37     H    0.93133   0.74313   0.99294   1.000
    H38     H    0.79910   0.44688   0.21550   1.000
    H39     H    0.44081   0.40662   0.30253   1.000
    H40     H    0.48304   0.50932   0.25646   1.000
    H41     H    0.85250   0.33735   0.23783   1.000
    H42     H    0.81315   0.23617   0.28751   1.000
    H43     H    0.49745   0.29866   0.32976   1.000
    H44     H    0.75125   0.82688   0.33122   1.000
    H45     H    0.76778   0.92861   0.42851   1.000
    H46     H    0.17086   0.92579   0.45235   1.000
    H47     H    0.15373   0.82079   0.35826   1.000
    H48     H    0.03638   0.73376   0.26897   1.000
    H49     H    0.88520   0.01532   0.51881   1.000
    H50     H    0.68595   0.38412   0.10549   1.000
    H51     H    0.48779   0.38542   0.11322   1.000
    H52     H    0.29807   0.34030   0.06595   1.000
    H53     H    0.62899   0.22622   0.92133   1.000
    H54     H    0.43819   0.17779   0.87601   1.000
    H55     H    0.24033   0.17896   0.88410   1.000
    H56     H    0.02104   0.28207   0.72607   1.000
    H57     H    0.93718   0.24388   0.64915   1.000
    H58     H    0.80096   0.28310   0.83539   1.000
    H59     H    0.94268   0.30486   0.83267   1.000
    H60     H    0.81857   0.09841   0.79645   1.000
    H61     H    0.72848   0.16407   0.81373   1.000
    H62     H    0.68832   0.23064   0.73172   1.000
    H63     H    0.74634   0.21325   0.65211   1.000
    H64     H    0.86376   0.12546   0.62780   1.000
    H65     H    0.89589   0.07556   0.68842   1.000
    H66     H    0.00941   0.12750   0.79371   1.000
    H67     H    0.06373   0.21463   0.80886   1.000
    H68     H    0.53837   0.18276   0.59667   1.000
    H69     H    0.55838   0.12207   0.64786   1.000
    H70     H    0.35858   0.06515   0.46219   1.000
    H71     H    0.42433   0.14963   0.48975   1.000
    H72     H    0.46835   0.00715   0.61080   1.000
    H73     H    0.38449   0.98278   0.53180   1.000
    H74     H    0.69853   0.10028   0.46334   1.000
    H75     H    0.62076   0.16999   0.49002   1.000
    H76     H    0.66245   0.02890   0.61214   1.000
    H77     H    0.72251   0.01843   0.53358   1.000
    H78     H    0.46556   0.96975   0.42624   1.000
    H79     H    0.60955   0.98521   0.42658   1.000
    H80     H    0.15115   0.06095   0.83955   1.000
    H81     H    0.12489   0.04461   0.95450   1.000
    H82     H    0.18986   0.00200   0.05649   1.000
    H83     H    0.46109   0.92330   0.95615   1.000
    H84     H    0.49159   0.94418   0.84164   1.000
    H85     H    0.43214   0.99274   0.74300   1.000
    H86     H    0.29914   0.21625   0.44793   1.000
    H87     H    0.94041   0.30340   0.40635   1.000
    H88     H    0.98268   0.25752   0.50904   1.000
    H89     H    0.35262   0.23824   0.33877   1.000
    H90     H    0.31295   0.28738   0.23741   1.000
    H91     H    0.99697   0.33020   0.29871   1.000
    H92     H    0.25100   0.33180   0.82656   1.000
    H93     H    0.26761   0.42929   0.92816   1.000
    H94     H    0.67059   0.45288   0.92551   1.000
    H95     H    0.65329   0.35894   0.82056   1.000
    H96     H    0.53592   0.26950   0.73364   1.000
    H97     H    0.38514   0.51952   0.01493   1.000
    H98     H    0.18563   0.10544   0.38502   1.000
    H99     H    0.98741   0.11265   0.38690   1.000
    C100    C    0.13039   0.33864   0.19950   1.000
    C101    C    0.32026   0.23825   0.72439   1.000
    C102    C    0.38659   0.29520   0.77559   1.000
    C103    C    0.33890   0.33832   0.82549   1.000
    H104    H    0.79769   0.06552   0.34144   1.000
    H105    H    0.12903   0.92293   0.22484   1.000
    H106    H    0.93833   0.87762   0.17642   1.000
    H107    H    0.74038   0.88550   0.17788   1.000
    C108    C    0.45020   0.70492   0.24490   1.000
    C109    C    0.37271   0.81093   0.26657   1.000
    C110    C    0.30032   0.78928   0.14739   1.000
    C111    C    0.26112   0.70812   0.21434   1.000
    C112    C    0.37764   0.68291   0.12581   1.000
    C113    C    0.49307   0.78733   0.17715   1.000
    C114    C    0.04827   0.59567   0.12868   1.000
    C115    C    0.93319   0.48882   0.09575   1.000
    C116    C    0.95914   0.55812   0.01329   1.000
    C117    C    0.12896   0.49042   0.11641   1.000
    C118    C    0.15134   0.55921   0.03516   1.000
    C119    C    0.03942   0.45333   0.00000   1.000
    C120    C    0.75640   0.72814   0.06154   1.000
    C121    C    0.78771   0.78660   0.03023   1.000
    C122    C    0.72579   0.84160   0.03582   1.000
    C123    C    0.75826   0.89891   0.00977   1.000
    C124    C    0.69880   0.95725   0.01775   1.000
    C125    C    0.73412   0.01306   0.99357   1.000
    C126    C    0.88760   0.95590   0.94935   1.000
    C127    C    0.91663   0.84129   0.96969   1.000
    C128    C    0.88413   0.78690   0.99665   1.000
    C129    C    0.82912   0.01247   0.95855   1.000
    C130    C    0.86961   0.07336   0.93340   1.000
    C131    C    0.85536   0.89870   0.97549   1.000
    O132    O    0.31943   0.05610   0.67968   1.000
    O133    O    0.17054   0.09231   0.72922   1.000
    O134    O    0.32952   0.96095   0.12925   1.000
    O135    O    0.43899   0.89240   0.06943   1.000
    O136    O    0.26008   0.17933   0.54960   1.000
    C137    C    0.66856   0.54453   0.20306   1.000
    C138    C    0.64472   0.48448   0.23366   1.000
    C139    C    0.72127   0.43808   0.23507   1.000
    C140    C    0.70001   0.37897   0.26047   1.000
    C141    C    0.59712   0.36763   0.28609   1.000
    C142    C    0.51969   0.41588   0.28416   1.000
    C143    C    0.54268   0.47275   0.25858   1.000
    C144    C    0.77670   0.33007   0.26043   1.000
    C145    C    0.75459   0.27369   0.28685   1.000
    C146    C    0.57580   0.30815   0.31114   1.000
    C147    C    0.65300   0.26217   0.31239   1.000
    C148    C    0.63083   0.19904   0.33881   1.000
    C149    C    0.82047   0.72446   0.23794   1.000
    C150    C    0.88694   0.77579   0.29468   1.000
    C151    C    0.83920   0.82580   0.33771   1.000
    C152    C    0.90280   0.87590   0.38924   1.000
    C153    C    0.85591   0.92767   0.43424   1.000
    C154    C    0.08262   0.92565   0.44722   1.000
    C155    C    0.01890   0.87486   0.39644   1.000
    C156    C    0.06572   0.82245   0.35216   1.000
    C157    C    0.00153   0.77435   0.30289   1.000
    C158    C    0.03469   0.97511   0.49081   1.000
    C159    C    0.10200   0.02880   0.54493   1.000
    C160    C    0.91991   0.97549   0.48386   1.000
    C161    C    0.66883   0.30554   0.01196   1.000
    C162    C    0.78855   0.30491   0.00922   1.000
    C163    C    0.62850   0.35035   0.06687   1.000
    C164    C    0.51852   0.35091   0.07104   1.000
    C165    C    0.32971   0.30620   0.02300   1.000
    C166    C    0.13875   0.26353   0.97877   1.000
    C167    C    0.44322   0.30618   0.02105   1.000
    C168    C    0.48354   0.25976   0.96600   1.000
    C169    C    0.59719   0.26124   0.96257   1.000
    C170    C    0.40789   0.21376   0.91728   1.000
    C171    C    0.25790   0.26157   0.97482   1.000
    C172    C    0.29781   0.21428   0.92161   1.000
    C173    C    0.94983   0.24581   0.70387   1.000
    C174    C    0.87246   0.26805   0.80940   1.000
    C175    C    0.80038   0.14859   0.78818   1.000
    C176    C    0.76086   0.21540   0.70684   1.000
    C177    C    0.87758   0.12642   0.68229   1.000
    C178    C    0.99305   0.17818   0.78643   1.000
    C179    C    0.54817   0.12882   0.59542   1.000
    C180    C    0.43284   0.09571   0.48881   1.000
    C181    C    0.45930   0.01310   0.55811   1.000
    C182    C    0.62859   0.11623   0.49060   1.000
    C183    C    0.65144   0.03486   0.55939   1.000
    C184    C    0.53932   0.00000   0.45375   1.000
    C185    C    0.25652   0.06129   0.72719   1.000
    C186    C    0.28798   0.03005   0.78560   1.000
    C187    C    0.22576   0.03578   0.84012   1.000
    C188    C    0.25823   0.00997   0.89751   1.000
    C189    C    0.19839   0.01820   0.95530   1.000
    C190    C    0.23376   0.99442   0.01135   1.000
    C191    C    0.38799   0.95000   0.95526   1.000
    C192    C    0.41729   0.96984   0.84095   1.000
    C193    C    0.38472   0.99656   0.78644   1.000
    C194    C    0.32914   0.95949   0.01138   1.000
    C195    C    0.36949   0.93487   0.07251   1.000
    C196    C    0.35572   0.97583   0.89791   1.000
    C197    C    0.16856   0.20391   0.54481   1.000
    C198    C    0.14456   0.23454   0.48486   1.000
    C199    C    0.22120   0.23584   0.43880   1.000
    C200    C    0.19989   0.26109   0.37972   1.000
    C201    C    0.09684   0.28671   0.36799   1.000
    C202    C    0.01936   0.28500   0.41590   1.000
    C203    C    0.04239   0.25952   0.47276   1.000
    C204    C    0.27664   0.26081   0.33116   1.000
    C205    C    0.25438   0.28697   0.27470   1.000
    C206    C    0.07542   0.31154   0.30846   1.000
    C207    C    0.15261   0.31251   0.26278   1.000
    C208    C    0.40251   0.38990   0.87556   1.000
    C209    C    0.35572   0.43494   0.92728   1.000
    C210    C    0.58238   0.44780   0.92536   1.000
    C211    C    0.51859   0.39708   0.87455   1.000
    C212    C    0.56534   0.35280   0.82219   1.000
    C213    C    0.50116   0.30346   0.77416   1.000
    C214    C    0.53456   0.49138   0.97482   1.000
    C215    C    0.60200   0.54541   0.02855   1.000
    C216    C    0.41979   0.48452   0.97512   1.000
    C217    C    0.16873   0.01273   0.30521   1.000
    C218    C    0.28846   0.01014   0.30419   1.000
    C219    C    0.12826   0.06703   0.35087   1.000
    C220    C    0.01822   0.07092   0.35176   1.000
    C221    C    0.82945   0.02387   0.30678   1.000
    C222    C    0.63857   0.97915   0.26337   1.000
    C223    C    0.94301   0.02125   0.30657   1.000
    C224    C    0.98345   0.96686   0.25937   1.000
    C225    C    0.09712   0.96368   0.26049   1.000
    C226    C    0.90791   0.91845   0.21292   1.000
    C227    C    0.75776   0.97525   0.26155   1.000
    C228    C    0.79780   0.92262   0.21360   1.000
    N229    N    0.47541   0.71294   0.17535   1.000
    N230    N    0.35386   0.73832   0.26520   1.000
    N231    N    0.28078   0.71644   0.14539   1.000
    N232    N    0.39576   0.82255   0.19792   1.000
    N233    N    0.94595   0.56023   0.08703   1.000
    N234    N    0.02838   0.45187   0.07440   1.000
    N235    N    0.14333   0.56063   0.10795   1.000
    N236    N    0.05348   0.52312   0.99180   1.000
    N237    N    0.97527   0.17609   0.71220   1.000
    N238    N    0.85349   0.26641   0.73695   1.000
    N239    N    0.78073   0.14630   0.71550   1.000
    N240    N    0.89573   0.19925   0.82134   1.000
    N241    N    0.44584   0.08707   0.56000   1.000
    N242    N    0.52805   0.07412   0.45210   1.000
    N243    N    0.64320   0.10788   0.56063   1.000
    N244    N    0.55363   0.99149   0.52336   1.000
    O245    O    0.81931   0.68031   0.05637   1.000
    O246    O    0.67068   0.73037   0.09251   1.000
    O247    O    0.82926   0.13050   0.95858   1.000
    O248    O    0.93948   0.06962   0.89153   1.000
    O249    O    0.75967   0.54895   0.17823   1.000
    O250    O    0.59669   0.58644   0.20240   1.000
    O251    O    0.70660   0.16987   0.36048   1.000
    O252    O    0.52739   0.17733   0.33614   1.000
    O253    O    0.87351   0.68443   0.19762   1.000
    O254    O    0.71731   0.72500   0.23321   1.000
    O255    O    0.05108   0.06397   0.59049   1.000
    O256    O    0.20431   0.03588   0.54130   1.000
    O257    O    0.10662   0.31632   0.01640   1.000
    O258    O    0.07626   0.21291   0.94249   1.000
    O259    O    0.84847   0.33319   0.06422   1.000
    O260    O    0.82425   0.27792   0.95293   1.000
    O261    O    0.09652   0.20289   0.58625   1.000
    O262    O    0.20613   0.36006   0.17052   1.000
    O263    O    0.02695   0.33602   0.17760   1.000
    O264    O    0.37339   0.19777   0.68459   1.000
    O265    O    0.21711   0.23350   0.72485   1.000
    O266    O    0.55118   0.59115   0.06374   1.000
    O267    O    0.70430   0.54157   0.03564   1.000
    O268    O    0.60612   0.01503   0.31693   1.000
    O269    O    0.57637   0.94458   0.21178   1.000
    O270    O    0.34836   0.06488   0.33367   1.000
    O271    O    0.32416   0.95420   0.27570   1.000
loop_
    _geom_bond_atom_site_label_1
    _geom_bond_atom_site_label_2
    _geom_bond_distance
    _geom_bond_site_symmetry_2
    _ccdc_geom_bond_type
    C119   N234      1.52854      .   S
    C119   H29       1.09052  1_454   S
    C119   H30       1.09126  1_554   S
    C119   N236      1.45091  1_554   S
    H34    C125      1.08912  1_554   S
    H23    C116      1.09639      .   S
    C162   C161      1.49056      .   S
    C162   O259      1.27804      .   S
    C162   O260      1.27874  1_554   S
    C123   C124      1.42218      .   S
    C123   C122      1.41551      .   S
    C123   C131      1.43724  1_554   S
    C190   C194      1.42254      .   S
    C190   H82       1.08902  1_565   S
    C190   C189      1.37754  1_564   S
    C194   C195      1.49410      .   S
    C194   C191      1.38521  1_554   S
    C161   C163      1.42082      .   S
    C161   C169      1.38635  1_554   S
    C116   N233      1.50530      .   S
    C116   H24       1.09755  1_554   S
    C116   N236      1.45986  1_654   S
    H97    C216      1.08811  1_554   S
    O257   Zn2       1.97018      .   S
    O257   C166      1.27630  1_554   S
    C124   H33       1.09112      .   S
    C124   C125      1.37703  1_564   S
    H28    C118      1.09679      .   S
    C167   C165      1.41089      .   S
    C167   C164      1.42087      .   S
    C167   C168      1.43882  1_554   S
    C165   H52       1.10257      .   S
    C165   C171      1.37758  1_554   S
    C215   O267      1.27472      .   S
    C215   O266      1.27612      .   S
    C215   C214      1.50122  1_554   S
    H27    C118      1.09828      .   S
    C121   C122      1.38640      .   S
    C121   C120      1.49565      .   S
    C121   C128      1.42253  1_554   S
    C118   N235      1.47775      .   S
    C118   N236      1.47541  1_554   S
    O267   Zn32      2.09360      .   S
    C122   H31       1.08950      .   S
    O245   C120      1.27841      .   S
    O245   Zn32      2.04594      .   S
    C120   O246      1.27581      .   S
    O266   Zn0       2.07865      .   S
    O259   Zn2       1.98504  1_655   S
    H21    C115      1.09618      .   S
    C163   C164      1.37359      .   S
    C163   H50       1.08615      .   S
    O135   C195      1.25662      .   S
    C164   H51       1.09079      .   S
    C195   O134      1.30653      .   S
    N234   Zn2       2.12207      .   S
    N234   C115      1.48740  1_455   S
    N234   C117      1.50493      .   S
    H16    C112      1.09924      .   S
    Zn2    O263      1.93304      .   S
    N233   C115      1.48591      .   S
    N233   Zn32      2.11521      .   S
    N233   C114      1.49916  1_655   S
    O246   Zn0       2.06790      .   S
    C115   H22       1.09611      .   S
    H11    C110      1.09791      .   S
    H25    C117      1.09667      .   S
    N235   C117      1.46118      .   S
    N235   C114      1.46409      .   S
    Zn32   O249      2.04490      .   S
    Zn32   O253      2.08008      .   S
    C117   H26       1.09778      .   S
    H20    C114      1.09709      .   S
    H15    C112      1.09666      .   S
    C112   N231      1.46348      .   S
    C112   N229      1.50288      .   S
    H17    C113      1.09535      .   S
    C114   H19       1.09817      .   S
    O134   Zn5       1.95718      .   S
    N231   C110      1.46002      .   S
    N231   C111      1.47803      .   S
    C110   H12       1.09816      .   S
    C110   N232      1.50672      .   S
    Zn0    N229      2.11437      .   S
    Zn0    O250      2.08117      .   S
    Zn0    O254      2.09841      .   S
    O262   C100      1.24497      .   S
    N229   C113      1.49008      .   S
    N229   C108      1.50555      .   S
    H106   C226      1.09120      .   S
    C113   N232      1.49018      .   S
    C113   H18       1.09614      .   S
    O263   C100      1.31492      .   S
    H107   C228      1.08756      .   S
    O249   C137      1.27767      .   S
    O253   C149      1.27632      .   S
    N232   Zn5       2.11816      .   S
    N232   C109      1.50402      .   S
    Zn5    O269      1.96666      .   S
    Zn5    O271      2.02019      .   S
    C100   C207      1.50093      .   S
    O250   C137      1.27585      .   S
    C137   C138      1.49626      .   S
    O269   C222      1.27787      .   S
    H14    C111      1.09761      .   S
    C226   C228      1.37505      .   S
    C226   C224      1.42168      .   S
    C228   C227      1.42129      .   S
    C111   H13       1.09792      .   S
    C111   N230      1.47373      .   S
    H38    C139      1.08889      .   S
    H105   C225      1.08966      .   S
    O254   C149      1.27564      .   S
    C138   C139      1.38620      .   S
    C138   C143      1.42132      .   S
    C139   C140      1.41250      .   S
    H90    C205      1.08981      .   S
    H41    C144      1.09166      .   S
    C149   C150      1.50174      .   S
    H8     C108      1.09646      .   S
    C108   N230      1.46006      .   S
    C108   H7        1.09789      .   S
    H40    C143      1.08877      .   S
    C143   C142      1.37707      .   S
    C224   C225      1.41402  1_655   S
    C224   C223      1.43801  1_565   S
    C144   C140      1.42153      .   S
    C144   C145      1.37633      .   S
    C140   C141      1.43612      .   S
    C225   C217      1.38604  1_565   S
    C227   C222      1.48876      .   S
    C227   C221      1.38663  1_565   S
    C207   C205      1.42148      .   S
    C207   C206      1.38542      .   S
    C222   O268      1.27672  1_565   S
    N230   C109      1.45744      .   S
    C109   H9        1.09625      .   S
    C109   H10       1.09906      .   S
    H48    C157      1.08764      .   S
    C205   C204      1.37624      .   S
    O271   C218      1.27774  1_565   S
    C142   C141      1.42285      .   S
    C142   H39       1.09110      .   S
    C141   C146      1.41536      .   S
    C145   H42       1.08974      .   S
    C145   C147      1.42139      .   S
    C150   C157      1.41998  1_655   S
    C150   C151      1.38367      .   S
    H91    C206      1.08811  1_655   S
    C157   C156      1.37485      .   S
    C218   C217      1.49081      .   S
    C218   O270      1.27820      .   S
    C217   C219      1.42075      .   S
    C223   C221      1.41314      .   S
    C223   C220      1.42069  1_655   S
    C221   H104      1.09026      .   S
    C206   C201      1.41564      .   S
    C146   C147      1.38551      .   S
    C146   H43       1.08820      .   S
    C147   C148      1.49950      .   S
    O268   Zn6       1.97183      .   S
    C204   H89       1.09165      .   S
    C204   C200      1.42169      .   S
    H44    C151      1.08985      .   S
    O270   Zn6       1.98449      .   S
    O252   C148      1.31504      .   S
    O252   Zn6       1.93325      .   S
    C151   C152      1.41610      .   S
    C148   O251      1.24589      .   S
    Zn6    N242      2.12569      .   S
    C219   C220      1.37380      .   S
    C219   H98       1.08631      .   S
    C220   H99       1.09070  1_455   S
    C156   H47       1.09167      .   S
    C156   C155      1.42093      .   S
    C201   C200      1.43608      .   S
    C201   C202      1.42282      .   S
    C200   C199      1.41182      .   S
    C152   C155      1.43685  1_655   S
    C152   C153      1.42057      .   S
    C155   C154      1.41580      .   S
    H87    C202      1.09076  1_655   S
    C202   C203      1.37721      .   S
    H78    C184      1.09433  1_565   S
    H79    C184      1.09335  1_565   S
    H45    C153      1.09114      .   S
    C153   C160      1.37468      .   S
    C199   H86       1.08889      .   S
    C199   C198      1.38672      .   S
    C154   H46       1.08998      .   S
    C154   C158      1.38379      .   S
    N242   C184      1.51851      .   S
    N242   C180      1.48814      .   S
    N242   C182      1.50496      .   S
    C184   N244      1.45368  1_545   S
    H70    C180      1.09585      .   S
    H74    C182      1.09663      .   S
    C203   C198      1.42132      .   S
    C203   H88       1.08863  1_455   S
    C160   C158      1.41902  1_655   S
    C160   H49       1.08767  1_565   S
    C198   C197      1.49633      .   S
    C180   H71       1.09600      .   S
    C180   N241      1.48530      .   S
    H75    C182      1.09783      .   S
    C182   N243      1.46112      .   S
    C158   C159      1.50102  1_565   S
    N244   C181      1.45953  1_565   S
    N244   C183      1.47466  1_565   S
    H73    C181      1.09731  1_565   S
    H77    C183      1.09676      .   S
    O256   C159      1.27505      .   S
    O256   Zn3       2.09295      .   S
    C197   O136      1.27768      .   S
    C197   O261      1.27582      .   S
    C159   O255      1.27574      .   S
    O136   Zn3       2.04330      .   S
    C181   N241      1.50536      .   S
    C181   H72       1.09610      .   S
    C183   N243      1.47791      .   S
    C183   H76       1.09832      .   S
    N241   C179      1.49976      .   S
    N241   Zn3       2.11718      .   S
    N243   C179      1.46409      .   S
    O261   Zn4       2.06933      .   S
    O255   Zn4       2.07447      .   S
    C179   H68       1.09820      .   S
    C179   H69       1.09711      .   S
    Zn3    O132      2.04525      .   S
    Zn3    O264      2.08258      .   S
    H64    C177      1.09702      .   S
    H57    C173      1.09664      .   S
    H63    C176      1.09754      .   S
    Zn4    N237      2.12210  1_455   S
    Zn4    O265      2.10349      .   S
    Zn4    O133      2.07183      .   S
    O132   C185      1.27814      .   S
    C177   H65       1.09770      .   S
    C177   N237      1.50291      .   S
    C177   N239      1.46350      .   S
    O264   C101      1.27617      .   S
    C173   N237      1.50550      .   S
    C173   H56       1.09761  1_655   S
    C173   N238      1.46013      .   S
    C176   N239      1.47795      .   S
    C176   H62       1.09791      .   S
    C176   N238      1.47374      .   S
    N237   C178      1.49025      .   S
    N239   C175      1.46010      .   S
    C101   O265      1.27568      .   S
    C101   C102      1.50192      .   S
    C185   O133      1.27594      .   S
    C185   C186      1.49476      .   S
    H96    C213      1.08755      .   S
    N238   C174      1.45758      .   S
    H85    C193      1.08867      .   S
    C213   C102      1.42028      .   S
    C213   C212      1.37479      .   S
    C102   C103      1.38384      .   S
    C186   C193      1.42196  1_545   S
    C186   C187      1.38607      .   S
    C178   H66       1.09524  1_655   S
    C178   H67       1.09589  1_655   S
    C178   N240      1.49049      .   S
    C193   C192      1.37510      .   S
    C175   H60       1.09785      .   S
    C175   H61       1.09839      .   S
    C175   N240      1.50657      .   S
    C174   N240      1.50397      .   S
    C174   H59       1.09908      .   S
    C174   H58       1.09633      .   S
    H95    C212      1.09161      .   S
    N240   Zn1       2.12341      .   S
    C212   C211      1.42086      .   S
    C103   H92       1.08986      .   S
    C103   C208      1.41621      .   S
    H80    C187      1.08940      .   S
    C187   C188      1.41485      .   S
    C192   H84       1.09147      .   S
    C192   C196      1.42173      .   S
    C211   C208      1.43720      .   S
    C211   C210      1.41571      .   S
    C208   C209      1.42069      .   S
    H54    C170      1.09112      .   S
    H55    C172      1.08830      .   S
    O248   C130      1.25502      .   S
    C188   C196      1.43678  1_545   S
    C188   C189      1.42123      .   S
    C196   C191      1.41376      .   S
    C170   C172      1.37521      .   S
    C170   C168      1.42147      .   S
    H53    C169      1.08967      .   S
    C172   C171      1.42140      .   S
    H35    C126      1.09019      .   S
    C210   H94       1.08996      .   S
    C210   C214      1.38386      .   S
    Zn1    O258      1.96446  1_655   S
    Zn1    O260      2.01835      .   S
    Zn1    O247      1.95613      .   S
    C209   H93       1.09120      .   S
    C209   C216      1.37474      .   S
    C130   C129      1.49575      .   S
    C130   O247      1.30734      .   S
    O258   C166      1.27795      .   S
    H36    C127      1.09146      .   S
    C126   C129      1.38476  1_565   S
    C126   C131      1.41384      .   S
    H81    C189      1.09117      .   S
    C191   H83       1.09023      .   S
    C129   C125      1.42251      .   S
    C169   C168      1.41451      .   S
    C127   C131      1.42170      .   S
    C127   C128      1.37516      .   S
    C214   C216      1.41933      .   S
    C171   C166      1.48887      .   S
    H37    C128      1.08849      .   S
    Zn32   Zn0       2.75849      .   S
    Zn3    Zn4       2.75623      .   S
