# CIF file generated by openbabel 2.4.90, see http://openbabel.sf.net
data_I
_chemical_name_common ''
_cell_length_a 12.396
_cell_length_b 20.153
_cell_length_c 20.225
_cell_angle_alpha 102.717
_cell_angle_beta 94.698
_cell_angle_gamma 94.474
_space_group_name_H-M_alt 'P 1'
_space_group_name_Hall 'P 1'
loop_
    _symmetry_equiv_pos_as_xyz
    x,y,z
loop_
    _atom_site_label
    _atom_site_type_symbol
    _atom_site_fract_x
    _atom_site_fract_y
    _atom_site_fract_z
    _atom_site_occupancy
    Zn0     Zn   0.61626   0.66407   0.15020   1.000
    Zn1     Zn   0.91674   0.20002   0.92677   1.000
    Zn2     Zn   0.00878   0.34957   0.08580   1.000
    Zn3     Zn   0.30555   0.11405   0.60870   1.000
    Zn4     Zn   0.11612   0.15052   0.66300   1.000
    Zn5     Zn   0.41679   0.92793   0.19818   1.000
    Zn6     Zn   0.50880   0.08533   0.34984   1.000
    Zn7     Zn   0.80551   0.60889   0.11389   1.000
    C8      C    0.13039   0.33864   0.19950   1.000
    C9      C    0.32026   0.23825   0.72439   1.000
    C10     C    0.75640   0.72814   0.06154   1.000
    C11     C    0.86961   0.07336   0.93340   1.000
    O12     O    0.31943   0.05610   0.67968   1.000
    O13     O    0.17054   0.09231   0.72922   1.000
    O14     O    0.32952   0.96095   0.12925   1.000
    O15     O    0.43899   0.89240   0.06943   1.000
    O16     O    0.26008   0.17933   0.54960   1.000
    C17     C    0.66856   0.54453   0.20306   1.000
    C18     C    0.63083   0.19904   0.33881   1.000
    C19     C    0.82047   0.72446   0.23794   1.000
    C20     C    0.10200   0.02880   0.54493   1.000
    C21     C    0.78855   0.30491   0.00922   1.000
    C22     C    0.13875   0.26353   0.97877   1.000
    C23     C    0.25652   0.06129   0.72719   1.000
    C24     C    0.36949   0.93487   0.07251   1.000
    C25     C    0.16856   0.20391   0.54481   1.000
    C26     C    0.60200   0.54541   0.02855   1.000
    C27     C    0.28846   0.01014   0.30419   1.000
    C28     C    0.63857   0.97915   0.26337   1.000
    O29     O    0.81931   0.68031   0.05637   1.000
    O30     O    0.67068   0.73037   0.09251   1.000
    O31     O    0.82926   0.13050   0.95858   1.000
    O32     O    0.93948   0.06962   0.89153   1.000
    O33     O    0.75967   0.54895   0.17823   1.000
    O34     O    0.59669   0.58644   0.20240   1.000
    O35     O    0.70660   0.16987   0.36048   1.000
    O36     O    0.52739   0.17733   0.33614   1.000
    O37     O    0.87351   0.68443   0.19762   1.000
    O38     O    0.71731   0.72500   0.23321   1.000
    O39     O    0.05108   0.06397   0.59049   1.000
    O40     O    0.20431   0.03588   0.54130   1.000
    O41     O    0.10662   0.31632   0.01640   1.000
    O42     O    0.07626   0.21291   0.94249   1.000
    O43     O    0.84847   0.33319   0.06422   1.000
    O44     O    0.82425   0.27792   0.95293   1.000
    O45     O    0.09652   0.20289   0.58625   1.000
    O46     O    0.20613   0.36006   0.17052   1.000
    O47     O    0.02695   0.33602   0.17760   1.000
    O48     O    0.37339   0.19777   0.68459   1.000
    O49     O    0.21711   0.23350   0.72485   1.000
    O50     O    0.55118   0.59115   0.06374   1.000
    O51     O    0.70430   0.54157   0.03564   1.000
    O52     O    0.60612   0.01503   0.31693   1.000
    O53     O    0.57637   0.94458   0.21178   1.000
    O54     O    0.34836   0.06488   0.33367   1.000
    O55     O    0.32416   0.95420   0.27570   1.000
    Ts56    Ts   0.56931   0.68036   0.15858   1.000
    Ts57    Ts   0.90974   0.19976   0.89163   1.000
    Ts58    Ts   0.01531   0.38367   0.08200   1.000
    Ts59    Ts   0.35231   0.10505   0.59247   1.000
    Ts60    Ts   0.06917   0.15904   0.67940   1.000
    Ts61    Ts   0.40978   0.89281   0.19809   1.000
    Ts62    Ts   0.51522   0.08159   0.38393   1.000
    Ts63    Ts   0.85232   0.59267   0.10494   1.000
    Og64    Og   0.13779   0.32993   0.22059   1.000
    Og65    Og   0.34237   0.25723   0.74146   1.000
    Og66    Og   0.76684   0.74763   0.05110   1.000
    Og67    Og   0.85611   0.05306   0.94178   1.000
    Og68    Og   0.66061   0.52451   0.21326   1.000
    Og69    Og   0.63822   0.22009   0.33000   1.000
    Og70    Og   0.84263   0.74157   0.25685   1.000
    Og71    Og   0.07957   0.01090   0.52689   1.000
    Og72    Og   0.74865   0.30512   0.01013   1.000
    Og73    Og   0.17847   0.26288   0.97745   1.000
    Og74    Og   0.26701   0.05088   0.74666   1.000
    Og75    Og   0.35604   0.94307   0.05213   1.000
    Og76    Og   0.16056   0.21412   0.52483   1.000
    Og77    Og   0.57952   0.52740   0.01064   1.000
    Og78    Og   0.24855   0.01100   0.30453   1.000
    Og79    Og   0.67830   0.97785   0.26276   1.000
loop_
    _geom_bond_atom_site_label_1
    _geom_bond_atom_site_label_2
    _geom_bond_distance
    _geom_bond_site_symmetry_2
    _ccdc_geom_bond_type
    C21    O43       1.27804      .   S
    C21    O44       1.27874  1_554   S
    O41    Zn2       1.97018      .   S
    O41    C22       1.27630  1_554   S
    C26    O51       1.27472      .   S
    C26    O50       1.27612      .   S
    O51    Zn7       2.09360      .   S
    O29    C10       1.27841      .   S
    O29    Zn7       2.04594      .   S
    C10    O30       1.27581      .   S
    O50    Zn0       2.07865      .   S
    O43    Zn2       1.98504  1_655   S
    O15    C24       1.25662      .   S
    C24    O14       1.30653      .   S
    Zn2    O47       1.93304      .   S
    O30    Zn0       2.06790      .   S
    Zn7    O33       2.04490      .   S
    Zn7    O37       2.08008      .   S
    O14    Zn5       1.95718      .   S
    Zn0    O34       2.08117      .   S
    Zn0    O38       2.09841      .   S
    O46    C8        1.24497      .   S
    O47    C8        1.31492      .   S
    O33    C17       1.27767      .   S
    O37    C19       1.27632      .   S
    Zn5    O53       1.96666      .   S
    Zn5    O55       2.02019      .   S
    O34    C17       1.27585      .   S
    O53    C28       1.27787      .   S
    O38    C19       1.27564      .   S
    C28    O52       1.27672  1_565   S
    O55    C27       1.27774  1_565   S
    C27    O54       1.27820      .   S
    O52    Zn6       1.97183      .   S
    O54    Zn6       1.98449      .   S
    O36    C18       1.31504      .   S
    O36    Zn6       1.93325      .   S
    C18    O35       1.24589      .   S
    O40    C20       1.27505      .   S
    O40    Zn3       2.09295      .   S
    C25    O16       1.27768      .   S
    C25    O45       1.27582      .   S
    C20    O39       1.27574      .   S
    O16    Zn3       2.04330      .   S
    O45    Zn4       2.06933      .   S
    O39    Zn4       2.07447      .   S
    Zn3    O12       2.04525      .   S
    Zn3    O48       2.08258      .   S
    Zn4    O49       2.10349      .   S
    Zn4    O13       2.07183      .   S
    O12    C23       1.27814      .   S
    O48    C9        1.27617      .   S
    C9     O49       1.27568      .   S
    C23    O13       1.27594      .   S
    O32    C11       1.25502      .   S
    Zn1    O42       1.96446  1_655   S
    Zn1    O44       2.01835      .   S
    Zn1    O31       1.95613      .   S
    C11    O31       1.30734      .   S
    O42    C22       1.27795      .   S
    Zn7    Zn0       2.75849      .   S
    Zn3    Zn4       2.75623      .   S
    Zn0    Ts56      0.70479      .   S
    Zn1    Ts57      0.70780      .   S
    Zn2    Ts58      0.70736      .   S
    Zn3    Ts59      0.70573      .   S
    Zn4    Ts60      0.70737      .   S
    Zn5    Ts61      0.70605      .   S
    Zn6    Ts62      0.70856      .   S
    Zn7    Ts63      0.70507      .   S
    C8     Og64      0.50031      .   S
    C9     Og65      0.50064      .   S
    C10    Og66      0.49855      .   S
    C11    Og67      0.49858      .   S
    C17    Og68      0.49875      .   S
    C18    Og69      0.49983      .   S
    C19    Og70      0.50058      .   S
    C20    Og71      0.50034      .   S
    C21    Og72      0.49685      .   S
    C22    Og73      0.49629      .   S
    C23    Og74      0.49825      .   S
    C24    Og75      0.49803      .   S
    C25    Og76      0.49878      .   S
    C26    Og77      0.50041      .   S
    C27    Og78      0.49694      .   S
    C28    Og79      0.49625      .   S
