# CIF file generated by openbabel 2.4.90, see http://openbabel.sf.net
data_I
_chemical_name_common ''
_cell_length_a 16.086
_cell_length_b 16.097
_cell_length_c 16.095
_cell_angle_alpha 90.221
_cell_angle_beta 89.991
_cell_angle_gamma 89.731
_space_group_name_H-M_alt 'P 1'
_space_group_name_Hall 'P 1'
loop_
    _symmetry_equiv_pos_as_xyz
    x,y,z
loop_
    _atom_site_label
    _atom_site_type_symbol
    _atom_site_fract_x
    _atom_site_fract_y
    _atom_site_fract_z
    _atom_site_occupancy
    Zr0     Zr   0.49996   0.24972   0.74996   1.000
    Zr1     Zr   0.99997   0.25020   0.74995   1.000
    Zr2     Zr   0.75033   0.50026   0.25026   1.000
    Zr3     Zr   0.74995   0.00009   0.24992   1.000
    Zr4     Zr   0.24990   0.74979   0.50007   1.000
    Zr5     Zr   0.25000   0.75010   0.00016   1.000
    Zr6     Zr   0.50009   0.75021   0.25003   1.000
    Zr7     Zr   0.00009   0.74955   0.24988   1.000
    Zr8     Zr   0.24967   0.50006   0.74970   1.000
    Zr9     Zr   0.25011   0.99984   0.75001   1.000
    Zr10    Zr   0.75010   0.25012   0.49989   1.000
    Zr11    Zr   0.75002   0.24973   0.00018   1.000
    N12     N    0.34666   0.63076   0.34548   1.000
    O13     O    0.40134   0.67355   0.31189   1.000
    O14     O    0.31268   0.67340   0.40063   1.000
    N15     N    0.86957   0.34542   0.15410   1.000
    O16     O    0.82688   0.40065   0.18789   1.000
    O17     O    0.82678   0.31177   0.09921   1.000
    N18     N    0.34616   0.15406   0.86889   1.000
    O19     O    0.31245   0.09905   0.82627   1.000
    O20     O    0.40098   0.18767   0.82624   1.000
    N21     N    0.15428   0.15369   0.63045   1.000
    O22     O    0.09923   0.18763   0.67322   1.000
    O23     O    0.18801   0.09883   0.67324   1.000
    N24     N    0.65353   0.36898   0.65465   1.000
    O25     O    0.68742   0.32640   0.59942   1.000
    O26     O    0.59879   0.32625   0.68817   1.000
    N27     N    0.65428   0.13043   0.84594   1.000
    O28     O    0.59925   0.17317   0.81222   1.000
    O29     O    0.68793   0.17318   0.90094   1.000
    N30     N    0.84613   0.13104   0.65395   1.000
    O31     O    0.81238   0.17367   0.59900   1.000
    O32     O    0.90099   0.17372   0.68770   1.000
    N33     N    0.15499   0.63015   0.15356   1.000
    O34     O    0.09972   0.67287   0.18744   1.000
    O35     O    0.18845   0.67308   0.09887   1.000
    N36     N    0.65402   0.84575   0.13101   1.000
    O37     O    0.59914   0.81219   0.17367   1.000
    O38     O    0.68769   0.90080   0.17363   1.000
    N39     N    0.84532   0.36918   0.84685   1.000
    O40     O    0.81180   0.32638   0.90151   1.000
    O41     O    0.90050   0.32657   0.81281   1.000
    N42     N    0.84591   0.84630   0.36936   1.000
    O43     O    0.81213   0.90113   0.32660   1.000
    O44     O    0.90091   0.81229   0.32658   1.000
    N45     N    0.86965   0.15380   0.34553   1.000
    O46     O    0.82684   0.09897   0.31188   1.000
    O47     O    0.82689   0.18769   0.40061   1.000
    N48     N    0.65434   0.65502   0.36991   1.000
    O49     O    0.68811   0.59979   0.32712   1.000
    O50     O    0.59932   0.68854   0.32703   1.000
    N51     N    0.63120   0.34697   0.34602   1.000
    O52     O    0.67382   0.31297   0.40088   1.000
    O53     O    0.67392   0.40161   0.31237   1.000
    N54     N    0.34582   0.86962   0.15413   1.000
    O55     O    0.40083   0.82686   0.18787   1.000
    O56     O    0.31211   0.82684   0.09910   1.000
    N57     N    0.84612   0.65332   0.13066   1.000
    O58     O    0.81242   0.59876   0.17350   1.000
    O59     O    0.90101   0.68718   0.17337   1.000
    N60     N    0.13032   0.65468   0.84622   1.000
    O61     O    0.17317   0.68825   0.90111   1.000
    O62     O    0.17305   0.59951   0.81231   1.000
    N63     N    0.63070   0.15441   0.15393   1.000
    O64     O    0.67342   0.09935   0.18763   1.000
    O65     O    0.67345   0.18793   0.09911   1.000
    N66     N    0.36900   0.65327   0.65399   1.000
    O67     O    0.32632   0.68718   0.59909   1.000
    O68     O    0.32623   0.59865   0.68765   1.000
    N69     N    0.15389   0.86871   0.34594   1.000
    O70     O    0.18763   0.82612   0.40092   1.000
    O71     O    0.09904   0.82603   0.31218   1.000
    N72     N    0.13032   0.84615   0.65448   1.000
    O73     O    0.17309   0.81227   0.59937   1.000
    O74     O    0.17318   0.90096   0.68812   1.000
    N75     N    0.36909   0.84552   0.84630   1.000
    O76     O    0.32639   0.81200   0.90114   1.000
    O77     O    0.32644   0.90058   0.81252   1.000
    N78     N    0.34578   0.34522   0.63034   1.000
    O79     O    0.40078   0.31164   0.67315   1.000
    O80     O    0.31199   0.40047   0.67306   1.000
    N81     N    0.15401   0.34666   0.86872   1.000
    O82     O    0.18762   0.40135   0.82604   1.000
    O83     O    0.09908   0.31279   0.82612   1.000
loop_
    _geom_bond_atom_site_label_1
    _geom_bond_atom_site_label_2
    _geom_bond_distance
    _geom_bond_site_symmetry_2
    _ccdc_geom_bond_type
    N12    O13       1.24450      .   S
    Zr6    O13       2.25049      .   S
    N12    O14       1.24480      .   S
    Zr4    O14       2.25087      .   S
    N15    O16       1.24426      .   S
    Zr2    O16       2.25012      .   S
    N15    O17       1.24408      .   S
    Zr11   O17       2.24993      .   S
    N18    O19       1.24440      .   S
    Zr9    O19       2.25008  1_565   S
    N18    O20       1.24466      .   S
    Zr0    O20       2.25024      .   S
    N21    O22       1.24457      .   S
    Zr1    O22       2.25030  1_655   S
    N21    O23       1.24456      .   S
    Zr9    O23       2.25048  1_565   S
    N24    O25       1.24453      .   S
    Zr10   O25       2.25012      .   S
    N24    O26       1.24420      .   S
    Zr0    O26       2.24972      .   S
    N27    O28       1.24461      .   S
    Zr0    O28       2.25047      .   S
    N27    O29       1.24462      .   S
    Zr11   O29       2.25041  1_554   S
    N30    O31       1.24472      .   S
    Zr10   O31       2.25087      .   S
    N30    O32       1.24449      .   S
    Zr1    O32       2.25027      .   S
    N33    O34       1.24568      .   S
    Zr7    O34       2.25240      .   S
    N33    O35       1.24503      .   S
    Zr5    O35       2.25123      .   S
    N36    O37       1.24490      .   S
    Zr6    O37       2.25133      .   S
    N36    O38       1.24456      .   S
    Zr3    O38       2.25065  1_545   S
    N39    O40       1.24395      .   S
    Zr11   O40       2.24898  1_554   S
    N39    O41       1.24492      .   S
    Zr1    O41       2.25088      .   S
    N42    O43       1.24422      .   S
    Zr3    O43       2.24971  1_545   S
    N42    O44       1.24460      .   S
    Zr7    O44       2.25037  1_455   S
    N45    O46       1.24449      .   S
    Zr3    O46       2.25033      .   S
    N45    O47       1.24465      .   S
    Zr10   O47       2.25043      .   S
    N48    O49       1.24518      .   S
    Zr2    O49       2.25132      .   S
    N48    O50       1.24476      .   S
    Zr6    O50       2.25036      .   S
    N51    O52       1.24488      .   S
    Zr10   O52       2.25161      .   S
    N51    O53       1.24427      .   S
    Zr2    O53       2.24985      .   S
    N54    O55       1.24466      .   S
    Zr6    O55       2.25042      .   S
    N54    O56       1.24565      .   S
    Zr5    O56       2.24879      .   S
    N57    O58       1.24501      .   S
    Zr2    O58       2.25106      .   S
    N57    O59       1.24542      .   S
    Zr7    O59       2.25185  1_455   S
    N60    O61       1.24413      .   S
    Zr5    O61       2.24938  1_554   S
    N60    O62       1.24478      .   S
    Zr8    O62       2.25083      .   S
    N63    O64       1.24515      .   S
    Zr3    O64       2.25121      .   S
    N63    O65       1.24484      .   S
    Zr11   O65       2.25063      .   S
    N66    O67       1.24515      .   S
    Zr4    O67       2.25131      .   S
    N66    O68       1.24462      .   S
    Zr8    O68       2.25008      .   S
    N69    O70       1.24451      .   S
    Zr4    O70       2.25033      .   S
    N69    O71       1.24448      .   S
    Zr7    O71       2.25023      .   S
    N72    O73       1.24505      .   S
    Zr4    O73       2.25108      .   S
    N72    O74       1.24467      .   S
    Zr9    O74       2.25017      .   S
    N75    O76       1.24467      .   S
    Zr5    O76       2.25068  1_554   S
    N75    O77       1.24484      .   S
    Zr9    O77       2.25098      .   S
    N78    O79       1.24439      .   S
    Zr0    O79       2.24999      .   S
    N78    O80       1.24474      .   S
    Zr8    O80       2.25075      .   S
    N81    O82       1.24437      .   S
    Zr8    O82       2.24939      .   S
    N81    O83       1.24499      .   S
    Zr1    O83       2.25080  1_655   S
