# CIF file generated by openbabel 2.4.90, see http://openbabel.sf.net
data_I
_chemical_name_common ''
_cell_length_a 15.316
_cell_length_b 19.21
_cell_length_c 19.485
_cell_angle_alpha 89.964
_cell_angle_beta 90
_cell_angle_gamma 90.069
_space_group_name_H-M_alt 'P 1'
_space_group_name_Hall 'P 1'
loop_
    _symmetry_equiv_pos_as_xyz
    x,y,z
loop_
    _atom_site_label
    _atom_site_type_symbol
    _atom_site_fract_x
    _atom_site_fract_y
    _atom_site_fract_z
    _atom_site_occupancy
    Zr0     Zr   0.25534   0.49988   0.50266   1.000
    Zr1     Zr   0.75536   0.49988   0.50266   1.000
    Zr2     Zr   0.24475   0.50255   0.00000   1.000
    Zr3     Zr   0.74477   0.50255   0.00000   1.000
    Zr4     Zr   0.24471   0.99963   0.49997   1.000
    Zr5     Zr   0.74473   0.99963   0.49997   1.000
    Zr6     Zr   0.25528   0.00000   0.00000   1.000
    Zr7     Zr   0.75529   0.00000   0.00000   1.000
    N8      N    0.02788   0.77744   0.96693   1.000
    O9      O    0.12513   0.86748   0.97561   1.000
    O10     O    0.91122   0.65655   0.98480   1.000
    N11     N    0.02695   0.72403   0.46706   1.000
    O12     O    0.12456   0.63374   0.47682   1.000
    O13     O    0.91057   0.84514   0.48419   1.000
    N14     N    0.93442   0.52554   0.75078   1.000
    O15     O    0.85340   0.51744   0.65214   1.000
    O16     O    0.05903   0.51334   0.86574   1.000
    N17     N    0.06593   0.47649   0.25122   1.000
    O18     O    0.14689   0.48477   0.15173   1.000
    O19     O    0.94118   0.48895   0.36659   1.000
    N20     N    0.52695   0.72403   0.46705   1.000
    O21     O    0.62457   0.63374   0.47682   1.000
    O22     O    0.41056   0.84514   0.48418   1.000
    N23     N    0.93357   0.97616   0.24874   1.000
    O24     O    0.05858   0.98870   0.36405   1.000
    O25     O    0.85279   0.98403   0.14986   1.000
    N26     N    0.97192   0.27771   0.96714   1.000
    O27     O    0.87470   0.36820   0.97625   1.000
    O28     O    0.08875   0.15612   0.98423   1.000
    N29     N    0.47192   0.27771   0.96715   1.000
    O30     O    0.37469   0.36820   0.97625   1.000
    O31     O    0.58875   0.15612   0.98423   1.000
    N32     N    0.56594   0.47649   0.25122   1.000
    O33     O    0.64690   0.48477   0.15173   1.000
    O34     O    0.44117   0.48895   0.36659   1.000
    N35     N    0.97341   0.22422   0.46706   1.000
    O36     O    0.08976   0.34525   0.48557   1.000
    O37     O    0.87570   0.13376   0.47564   1.000
    N38     N    0.43441   0.52554   0.75078   1.000
    O39     O    0.55904   0.51334   0.86574   1.000
    O40     O    0.35339   0.51744   0.65214   1.000
    N41     N    0.47342   0.22422   0.46706   1.000
    O42     O    0.58978   0.34525   0.48557   1.000
    O43     O    0.37570   0.13376   0.47562   1.000
    N44     N    0.43356   0.97616   0.24876   1.000
    O45     O    0.35278   0.98403   0.14987   1.000
    O46     O    0.55859   0.98870   0.36406   1.000
    N47     N    0.56619   0.02465   0.74865   1.000
    O48     O    0.64704   0.01684   0.64978   1.000
    O49     O    0.44130   0.01229   0.86405   1.000
    N50     N    0.06619   0.02465   0.74865   1.000
    O51     O    0.14703   0.01684   0.64978   1.000
    O52     O    0.94131   0.01229   0.86405   1.000
    N53     N    0.52788   0.77744   0.96697   1.000
    O54     O    0.62514   0.86748   0.97563   1.000
    O55     O    0.41121   0.65655   0.98482   1.000
loop_
    _geom_bond_atom_site_label_1
    _geom_bond_atom_site_label_2
    _geom_bond_distance
    _geom_bond_site_symmetry_2
    _ccdc_geom_bond_type
    N8     O9        2.28765      .   S
    Zr6    O9        3.26634  1_544   S
    N8     O10       2.94888  1_455   S
    Zr3    O10       3.91395  1_554   S
    N11    O12       2.29896      .   S
    Zr0    O12       3.29987      .   S
    N11    O13       2.95179  1_455   S
    Zr5    O13       3.92074      .   S
    N14    O15       2.29291      .   S
    Zr1    O15       3.29430      .   S
    N14    O16       2.95232  1_655   S
    Zr2    O16       3.87019  1_554   S
    N17    O18       2.30641      .   S
    Zr2    O18       3.33195      .   S
    N17    O19       2.96032  1_455   S
    Zr1    O19       3.89561      .   S
    N20    O21       2.29903      .   S
    Zr1    O21       3.29994      .   S
    N20    O22       2.95189      .   S
    Zr4    O22       3.92084      .   S
    N23    O24       2.96167  1_655   S
    Zr4    O24       3.89671      .   S
    N23    O25       2.29467      .   S
    Zr7    O25       3.29411  1_545   S
    N26    O27       2.29722      .   S
    Zr3    O27       3.29383  1_554   S
    N26    O28       2.96265  1_655   S
    Zr6    O28       3.95115  1_554   S
    N29    O30       2.29728      .   S
    Zr2    O30       3.29389  1_554   S
    N29    O31       2.96274      .   S
    Zr7    O31       3.95123  1_554   S
    N32    O33       2.30642      .   S
    Zr3    O33       3.33197      .   S
    N32    O34       2.96044      .   S
    Zr0    O34       3.89575      .   S
    N35    O36       2.95006  1_655   S
    Zr0    O36       3.91769      .   S
    N35    O37       2.29793      .   S
    Zr5    O37       3.29759  1_565   S
    N38    O39       2.95242      .   S
    Zr3    O39       3.87031  1_554   S
    N38    O40       2.29297      .   S
    Zr0    O40       3.29435      .   S
    N41    O42       2.95008      .   S
    Zr1    O42       3.91771      .   S
    N41    O43       2.29803      .   S
    Zr4    O43       3.29775  1_565   S
    N44    O45       2.29482      .   S
    Zr6    O45       3.29425  1_545   S
    N44    O46       2.96168      .   S
    Zr5    O46       3.89673      .   S
    N47    O48       2.29522      .   S
    Zr5    O48       3.29714  1_565   S
    N47    O49       2.96131      .   S
    Zr6    O49       3.89720  1_554   S
    N50    O51       2.29516      .   S
    Zr4    O51       3.29709  1_565   S
    N50    O52       2.96123  1_455   S
    Zr7    O52       3.89710  1_554   S
    N53    O54       2.28768      .   S
    Zr7    O54       3.26634  1_544   S
    N53    O55       2.94893      .   S
    Zr2    O55       3.91402  1_554   S
