# CIF file generated by openbabel 2.4.90, see http://openbabel.sf.net
data_I
_chemical_name_common ''
_cell_length_a 22.113
_cell_length_b 22.118
_cell_length_c 14.068
_cell_angle_alpha 88.045
_cell_angle_beta 90.645
_cell_angle_gamma 80.131
_space_group_name_H-M_alt 'P 1'
_space_group_name_Hall 'P 1'
loop_
    _symmetry_equiv_pos_as_xyz
    x,y,z
loop_
    _atom_site_label
    _atom_site_type_symbol
    _atom_site_fract_x
    _atom_site_fract_y
    _atom_site_fract_z
    _atom_site_occupancy
    Zn0     Zn   0.37004   0.66674   0.80750   1.000
    Zn1     Zn   0.86929   0.16689   0.80760   1.000
    Zn2     Zn   0.86999   0.66666   0.80795   1.000
    Zn3     Zn   0.36571   0.17222   0.60440   1.000
    Zn4     Zn   0.36717   0.67189   0.60407   1.000
    Zn5     Zn   0.86669   0.17188   0.60406   1.000
    Zn6     Zn   0.86716   0.67193   0.60439   1.000
    Zn7     Zn   0.13001   0.33333   0.19202   1.000
    Zn8     Zn   0.13069   0.83310   0.19241   1.000
    Zn9     Zn   0.62998   0.33314   0.19241   1.000
    Zn10    Zn   0.63049   0.83316   0.19206   1.000
    Zn11    Zn   0.13284   0.32806   0.39558   1.000
    Zn12    Zn   0.13329   0.82811   0.39593   1.000
    Zn13    Zn   0.63285   0.32804   0.39592   1.000
    Zn14    Zn   0.63421   0.82773   0.39558   1.000
    Zn15    Zn   0.36950   0.16679   0.80792   1.000
loop_
    _geom_bond_atom_site_label_1
    _geom_bond_atom_site_label_2
    _geom_bond_distance
    _geom_bond_site_symmetry_2
    _ccdc_geom_bond_type
    Zn15   Zn3       2.86122      .   S
    Zn0    Zn4       2.85979      .   S
    Zn1    Zn5       2.86131      .   S
    Zn2    Zn6       2.86162      .   S
    Zn7    Zn11      2.86162      .   S
    Zn8    Zn12      2.86103      .   S
    Zn9    Zn13      2.86091      .   S
    Zn10   Zn14      2.86121      .   S
