# CIF file generated by openbabel 2.4.90, see http://openbabel.sf.net
data_I
_chemical_name_common ''
_cell_length_a 15.137
_cell_length_b 17.67
_cell_length_c 15.41
_cell_angle_alpha 61.016
_cell_angle_beta 89.944
_cell_angle_gamma 89.954
_space_group_name_H-M_alt 'P 1'
_space_group_name_Hall 'P 1'
loop_
    _symmetry_equiv_pos_as_xyz
    x,y,z
loop_
    _atom_site_label
    _atom_site_type_symbol
    _atom_site_fract_x
    _atom_site_fract_y
    _atom_site_fract_z
    _atom_site_occupancy
    N0      N    0.72655   0.72875   0.73156   1.000
    N1      N    0.49834   0.00314   0.00133   1.000
    N2      N    0.76983   0.22877   0.23147   1.000
    N3      N    0.21982   0.75592   0.77781   1.000
    N4      N    0.00035   0.49882   0.50140   1.000
    N5      N    0.26977   0.26965   0.27101   1.000
    Zr6     Zr   0.02041   0.45966   0.89958   1.000
    O7      O    0.09597   0.40337   0.00956   1.000
    O8      O    0.07607   0.54892   0.87202   1.000
    O9      O    0.93094   0.53812   0.85351   1.000
    Zr10    Zr   0.47596   0.95987   0.39972   1.000
    O11     O    0.39871   0.90014   0.51136   1.000
    O12     O    0.56543   0.03827   0.35358   1.000
    O13     O    0.41860   0.05251   0.37044   1.000
    Zr14    Zr   0.97578   0.53839   0.10298   1.000
    O15     O    0.06530   0.46005   0.14901   1.000
    O16     O    0.90027   0.59477   0.99300   1.000
    O17     O    0.91850   0.44582   0.13216   1.000
    Zr18    Zr   0.45627   0.01935   0.61935   1.000
    O19     O    0.56391   0.08530   0.50118   1.000
    O20     O    0.54569   0.93634   0.64042   1.000
    O21     O    0.01704   0.46980   0.78198   1.000
    O22     O    0.94572   0.39165   0.00029   1.000
    O23     O    0.47990   0.97105   0.28205   1.000
    O24     O    0.55065   0.89178   0.50044   1.000
    O25     O    0.04884   0.60307   0.00392   1.000
    O26     O    0.98033   0.52810   0.22067   1.000
    O27     O    0.41363   0.09707   0.51042   1.000
    O28     O    0.48457   0.02146   0.72884   1.000
loop_
    _geom_bond_atom_site_label_1
    _geom_bond_atom_site_label_2
    _geom_bond_distance
    _geom_bond_site_symmetry_2
    _ccdc_geom_bond_type
    Zr6    O7        1.88091  1_556   S
    N5     O7        4.41840      .   S
    Zr6    O8        1.65222      .   S
    N3     O8        3.88355      .   S
    Zr6    O9        1.81801  1_455   S
    N0     O9        4.27901      .   S
    Zr10   O11       1.91822      .   S
    N3     O11       4.53142      .   S
    Zr10   O12       1.81809  1_565   S
    N2     O12       4.27918      .   S
    Zr10   O13       1.70874  1_565   S
    N5     O13       4.05462      .   S
    Zr14   O15       1.81729  1_655   S
    N5     O15       4.27764      .   S
    Zr14   O16       1.88070  1_554   S
    N0     O16       4.41790      .   S
    Zr14   O17       1.70827      .   S
    N2     O17       4.05391      .   S
    Zr18   O19       2.29558      .   S
    N2     O19       4.81585      .   S
    Zr18   O20       1.90385  1_545   S
    N0     O20       4.23335      .   S
    Zr6    O21       1.73341      .   S
    N4     O21       4.10779      .   S
    Zr6    O22       1.82275  1_456   S
    N2     O22       4.25674      .   S
    Zr10   O23       1.72716      .   S
    N1     O23       4.09063  1_545   S
    Zr10   O24       1.82376      .   S
    N0     O24       4.25863      .   S
    Zr14   O25       1.77976  1_655   S
    N3     O25       4.12395  1_556   S
    Zr14   O26       1.73437      .   S
    N4     O26       4.11181  1_455   S
    N5     O27       4.09323      .   S
    Zr18   O27       1.69911      .   S
    Zr18   O28       1.75895      .   S
    N1     O28       4.05775  1_554   S
