# CIF file generated by openbabel 2.4.90, see http://openbabel.sf.net
data_I
_chemical_name_common ''
_cell_length_a 15.137
_cell_length_b 17.67
_cell_length_c 15.41
_cell_angle_alpha 61.016
_cell_angle_beta 89.944
_cell_angle_gamma 89.954
_space_group_name_H-M_alt 'P 1'
_space_group_name_Hall 'P 1'
loop_
    _symmetry_equiv_pos_as_xyz
    x,y,z
loop_
    _atom_site_label
    _atom_site_type_symbol
    _atom_site_fract_x
    _atom_site_fract_y
    _atom_site_fract_z
    _atom_site_occupancy
    C0      C    0.97578   0.53839   0.10298   1.000
    C1      C    0.47596   0.95987   0.39972   1.000
    C2      C    0.02041   0.45966   0.89958   1.000
    C3      C    0.52039   0.03869   0.60302   1.000
    C4      C    0.12911   0.81173   0.77965   1.000
    C5      C    0.13678   0.74020   0.72842   1.000
    C6      C    0.22509   0.66742   0.78847   1.000
    C7      C    0.27201   0.69311   0.87730   1.000
    C8      C    0.21272   0.78262   0.87147   1.000
    C9      C    0.22771   0.87150   0.75280   1.000
    C10     C    0.18072   0.84565   0.66395   1.000
    C11     C    0.24014   0.75639   0.66965   1.000
    C12     C    0.32381   0.72729   0.76147   1.000
    C13     C    0.31576   0.79836   0.81312   1.000
    C14     C    0.92813   0.57986   0.43091   1.000
    C15     C    0.04402   0.58938   0.40912   1.000
    C16     C    0.08613   0.48448   0.44363   1.000
    C17     C    0.00000   0.40990   0.48716   1.000
    C18     C    0.89855   0.46867   0.47929   1.000
    C19     C    0.62934   0.68645   0.72309   1.000
    C20     C    0.63662   0.75802   0.77430   1.000
    C21     C    0.72484   0.83091   0.71423   1.000
    C22     C    0.77208   0.80525   0.62541   1.000
    C23     C    0.71309   0.71566   0.63126   1.000
    C24     C    0.72809   0.62682   0.74994   1.000
    C25     C    0.68077   0.65262   0.83878   1.000
    C26     C    0.73988   0.74197   0.83305   1.000
    C27     C    0.82369   0.77116   0.74123   1.000
    C28     C    0.81603   0.70006   0.68960   1.000
    C29     C    0.42790   0.91853   0.07168   1.000
    C30     C    0.54376   0.90847   0.09361   1.000
    C31     C    0.58627   0.01319   0.05925   1.000
    C32     C    0.49643   0.08816   0.01568   1.000
    C33     C    0.39875   0.02984   0.02336   1.000
    C34     C    0.86714   0.18649   0.22301   1.000
    C35     C    0.85962   0.25816   0.27408   1.000
    C36     C    0.77136   0.33098   0.21400   1.000
    C37     C    0.72431   0.30519   0.12529   1.000
    C38     C    0.78348   0.21556   0.13125   1.000
    C39     C    0.76848   0.12680   0.25000   1.000
    C40     C    0.81559   0.15275   0.33871   1.000
    C41     C    0.75631   0.24212   0.33289   1.000
    C42     C    0.67258   0.27119   0.24112   1.000
    C43     C    0.68047   0.19999   0.18962   1.000
    C44     C    0.06823   0.41778   0.57189   1.000
    C45     C    0.95233   0.40826   0.59368   1.000
    C46     C    0.91023   0.51317   0.55917   1.000
    C47     C    0.00035   0.58774   0.51564   1.000
    C48     C    0.09780   0.52897   0.52351   1.000
    C49     C    0.36699   0.31202   0.27934   1.000
    C50     C    0.35968   0.24023   0.22844   1.000
    C51     C    0.27146   0.16740   0.28867   1.000
    C52     C    0.22423   0.19333   0.37728   1.000
    C53     C    0.28325   0.28302   0.37114   1.000
    C54     C    0.26825   0.37169   0.25232   1.000
    C55     C    0.31555   0.34561   0.16370   1.000
    C56     C    0.25643   0.25616   0.16971   1.000
    C57     C    0.17262   0.22718   0.26151   1.000
    C58     C    0.18030   0.29850   0.31283   1.000
    C59     C    0.56868   0.08004   0.93098   1.000
    C60     C    0.45283   0.09010   0.90902   1.000
    C61     C    0.41033   0.98538   0.94338   1.000
    C62     C    0.50014   0.91040   0.98698   1.000
    C63     C    0.59783   0.00000   0.97929   1.000
    C64     C    0.05860   0.83402   0.79242   1.000
    C65     C    0.07151   0.71549   0.70760   1.000
    C66     C    0.21934   0.59406   0.80737   1.000
    C67     C    0.29664   0.63665   0.95490   1.000
    C68     C    0.19806   0.78569   0.94511   1.000
    C69     C    0.23393   0.00000   0.73347   1.000
    C70     C    0.15584   0.90195   0.58641   1.000
    C71     C    0.25467   0.75290   0.59619   1.000
    C72     C    0.39428   0.70469   0.74893   1.000
    C73     C    0.38103   0.82254   0.83447   1.000
    C74     C    0.87993   0.63486   0.37502   1.000
    C75     C    0.07300   0.65055   0.33877   1.000
    C76     C    0.14308   0.47589   0.39607   1.000
    C77     C    0.00000   0.35253   0.46806   1.000
    C78     C    0.83107   0.45052   0.45496   1.000
    C79     C    0.55896   0.66404   0.71037   1.000
    C80     C    0.57122   0.78263   0.79515   1.000
    C81     C    0.71888   0.90425   0.69533   1.000
    C82     C    0.79672   0.86173   0.54780   1.000
    C83     C    0.69864   0.71255   0.55764   1.000
    C84     C    0.73454   0.55347   0.76928   1.000
    C85     C    0.65591   0.59628   0.91634   1.000
    C86     C    0.75422   0.74547   0.90651   1.000
    C87     C    0.89406   0.79385   0.75374   1.000
    C88     C    0.88145   0.67597   0.66823   1.000
    C89     C    0.37946   0.86373   0.12746   1.000
    C90     C    0.57247   0.84714   0.16396   1.000
    C91     C    0.64321   0.02148   0.10691   1.000
    C92     C    0.49435   0.14550   0.03485   1.000
    C93     C    0.33130   0.04827   0.04761   1.000
    C94     C    0.93760   0.16410   0.21027   1.000
    C95     C    0.92495   0.28284   0.29482   1.000
    C96     C    0.77720   0.40436   0.19498   1.000
    C97     C    0.69972   0.36162   0.04766   1.000
    C98     C    0.79808   0.21239   0.05767   1.000
    C99     C    0.76216   0.05341   0.26944   1.000
    C100    C    0.84046   0.09647   0.41629   1.000
    C101    C    0.74184   0.24570   0.40631   1.000
    C102    C    0.60215   0.29388   0.25364   1.000
    C103    C    0.61515   0.17584   0.16834   1.000
    C104    C    0.11643   0.36278   0.62778   1.000
    C105    C    0.92336   0.34709   0.66404   1.000
    C106    C    0.85328   0.52175   0.60673   1.000
    C107    C    0.00261   0.64511   0.53474   1.000
    C108    C    0.16529   0.54713   0.54783   1.000
    C109    C    0.43738   0.33448   0.29197   1.000
    C110    C    0.42509   0.21551   0.20772   1.000
    C111    C    0.27739   0.09399   0.30780   1.000
    C112    C    0.19958   0.13697   0.45496   1.000
    C113    C    0.29769   0.28633   0.44465   1.000
    C114    C    0.26182   0.44509   0.23275   1.000
    C115    C    0.34044   0.40182   0.08607   1.000
    C116    C    0.24209   0.25246   0.09637   1.000
    C117    C    0.10225   0.20444   0.24908   1.000
    C118    C    0.11489   0.32270   0.33406   1.000
    C119    C    0.61711   0.13485   0.87519   1.000
    C120    C    0.42411   0.15143   0.83867   1.000
    C121    C    0.35337   0.97709   0.89574   1.000
    C122    C    0.50221   0.85306   0.96784   1.000
    C123    C    0.66527   0.00000   0.95501   1.000
    C124    C    0.16173   0.70649   0.85012   1.000
    C125    C    0.29108   0.83249   0.69097   1.000
    C126    C    0.09799   0.64569   0.92934   1.000
    C127    C    0.35612   0.89558   0.61449   1.000
    C128    C    0.00000   0.51462   0.39509   1.000
    C129    C    0.00000   0.52974   0.29036   1.000
    C130    C    0.66177   0.79175   0.65259   1.000
    C131    C    0.79114   0.66595   0.81175   1.000
    C132    C    0.59806   0.85248   0.57332   1.000
    C133    C    0.85620   0.60298   0.88823   1.000
    C134    C    0.48231   0.98345   0.10767   1.000
    C135    C    0.46757   0.96828   0.21247   1.000
    C136    C    0.83459   0.29174   0.15243   1.000
    C137    C    0.70524   0.16600   0.31174   1.000
    C138    C    0.89828   0.35241   0.07308   1.000
    C139    C    0.64015   0.10307   0.38826   1.000
    C140    C    0.01404   0.48302   0.60771   1.000
    C141    C    0.02870   0.46790   0.71245   1.000
    C142    C    0.33455   0.20676   0.35009   1.000
    C143    C    0.20518   0.33236   0.19073   1.000
    C144    C    0.39826   0.14606   0.42940   1.000
    C145    C    0.14013   0.39525   0.11416   1.000
    C146    C    0.51431   0.01510   0.89498   1.000
    C147    C    0.52936   0.03018   0.79027   1.000
    C148    C    0.07754   0.66036   0.99904   1.000
    C149    C    0.06684   0.58120   0.92262   1.000
    C150    C    0.39215   0.00000   0.63569   1.000
    C151    C    0.37021   0.88994   0.53669   1.000
    C152    C    0.92601   0.47285   0.27783   1.000
    C153    C    0.00000   0.59762   0.21758   1.000
    C154    C    0.57765   0.83763   0.50380   1.000
    C155    C    0.56691   0.91715   0.57978   1.000
    C156    C    0.89238   0.54916   0.86705   1.000
    C157    C    0.87014   0.60870   0.96597   1.000
    C158    C    0.42596   0.02520   0.22511   1.000
    C159    C    0.49942   0.90038   0.28518   1.000
    C160    C    0.91868   0.33754   0.00354   1.000
    C161    C    0.92942   0.41707   0.07949   1.000
    C162    C    0.60399   0.04927   0.36710   1.000
    C163    C    0.62614   0.10878   0.46603   1.000
    C164    C    0.07038   0.52476   0.72497   1.000
    C165    C    0.99672   0.40011   0.78522   1.000
    C166    C    0.41864   0.16090   0.49894   1.000
    C167    C    0.42944   0.08142   0.42290   1.000
    C168    C    0.10396   0.44920   0.13515   1.000
    C169    C    0.12614   0.38937   0.03653   1.000
    C170    C    0.56996   0.00000   0.77794   1.000
    C171    C    0.49881   0.09868   0.71726   1.000
    O172    O    0.90848   0.34498   0.03831   1.000
    O173    O    0.96954   0.39860   0.95156   1.000
    O174    O    0.49539   0.11683   0.02526   1.000
    O175    O    0.47463   0.08913   0.96235   1.000
    O176    O    0.53256   0.08410   0.97333   1.000
    O177    O    0.36503   0.03905   0.03548   1.000
    O178    O    0.44053   0.00665   0.06551   1.000
    O179    O    0.42579   0.05997   0.96619   1.000
    O180    O    0.40454   0.00761   0.98337   1.000
    O181    O    0.13313   0.39231   0.07535   1.000
    O182    O    0.07328   0.42451   0.96806   1.000
    O183    O    0.71201   0.33340   0.08648   1.000
    O184    O    0.79078   0.21397   0.09446   1.000
    O185    O    0.61474   0.01734   0.08308   1.000
    O186    O    0.53429   0.99832   0.08346   1.000
    O187    O    0.59205   0.00659   0.01927   1.000
    O188    O    0.45510   0.95099   0.08968   1.000
    O189    O    0.40368   0.89113   0.09957   1.000
    O190    O    0.41911   0.95196   0.00753   1.000
    O191    O    0.46402   0.91447   0.02933   1.000
    O192    O    0.91385   0.38474   0.07628   1.000
    O193    O    0.86643   0.32207   0.11276   1.000
    O194    O    0.95260   0.47773   0.09123   1.000
    O195    O    0.32800   0.37371   0.12488   1.000
    O196    O    0.55812   0.87780   0.12879   1.000
    O197    O    0.52195   0.90944   0.04030   1.000
    O198    O    0.24926   0.25431   0.13304   1.000
    O199    O    0.03987   0.49379   0.11907   1.000
    O200    O    0.98789   0.56800   0.16028   1.000
    O201    O    0.95090   0.50562   0.19040   1.000
    O202    O    0.92296   0.57355   0.03448   1.000
    O203    O    0.02666   0.59937   0.05101   1.000
    O204    O    0.47494   0.97587   0.16007   1.000
    O205    O    0.12205   0.42223   0.12466   1.000
    O206    O    0.17266   0.36380   0.15244   1.000
    O207    O    0.77945   0.29846   0.13886   1.000
    O208    O    0.70239   0.25259   0.15746   1.000
    O209    O    0.69845   0.28819   0.18321   1.000
    O210    O    0.73198   0.20778   0.16044   1.000
    O211    O    0.77598   0.17118   0.19063   1.000
    O212    O    0.80297   0.31136   0.18322   1.000
    O213    O    0.85087   0.23911   0.18773   1.000
    O214    O    0.26037   0.33898   0.17721   1.000
    O215    O    0.33762   0.29292   0.19607   1.000
    O216    O    0.34127   0.32881   0.22152   1.000
    O217    O    0.64781   0.18791   0.17899   1.000
    O218    O    0.30806   0.24819   0.19908   1.000
    O219    O    0.26394   0.21178   0.22919   1.000
    O220    O    0.23672   0.35202   0.22153   1.000
    O221    O    0.18890   0.27977   0.22612   1.000
    O222    O    0.77428   0.36767   0.20449   1.000
    O223    O    0.39239   0.22787   0.21808   1.000
    O224    O    0.90237   0.17529   0.21664   1.000
    O225    O    0.44677   0.99674   0.21879   1.000
    O226    O    0.48350   0.93433   0.24882   1.000
    O227    O    0.72197   0.30108   0.22756   1.000
    O228    O    0.76383   0.28655   0.27345   1.000
    O229    O    0.00000   0.56368   0.25397   1.000
    O230    O    0.81781   0.15664   0.23651   1.000
    O231    O    0.84137   0.16962   0.28086   1.000
    O232    O    0.45096   0.99253   0.31241   1.000
    O233    O    0.26504   0.40839   0.24254   1.000
    O234    O    0.63737   0.28253   0.24738   1.000
    O235    O    0.68891   0.21859   0.27643   1.000
    O236    O    0.13743   0.21581   0.25529   1.000
    O237    O    0.76532   0.09011   0.25972   1.000
    O238    O    0.73686   0.14640   0.28087   1.000
    O239    O    0.31762   0.34185   0.26583   1.000
    O240    O    0.27575   0.32735   0.31173   1.000
    O241    O    0.22204   0.19729   0.27509   1.000
    O242    O    0.19843   0.21025   0.31940   1.000
    O243    O    0.89229   0.27050   0.28445   1.000
    O244    O    0.80796   0.25014   0.30349   1.000
    O245    O    0.83761   0.20545   0.30640   1.000
    O246    O    0.96301   0.50130   0.28409   1.000
    O247    O    0.40218   0.32325   0.28566   1.000
    O248    O    0.35077   0.25939   0.31472   1.000
    O249    O    0.48769   0.93013   0.34245   1.000
    O250    O    0.27442   0.13070   0.29824   1.000
    O251    O    0.30300   0.18708   0.31938   1.000
    O252    O    0.00000   0.52218   0.34273   1.000
    O253    O    0.76042   0.15937   0.32523   1.000
    O254    O    0.67270   0.13453   0.35000   1.000
    O255    O    0.14759   0.31060   0.32345   1.000
    O256    O    0.23177   0.29076   0.34198   1.000
    O257    O    0.20227   0.24592   0.34506   1.000
    O258    O    0.74907   0.24391   0.36960   1.000
    O259    O    0.82802   0.12461   0.37750   1.000
    O260    O    0.05851   0.61997   0.37395   1.000
    O261    O    0.27939   0.20004   0.36369   1.000
    O262    O    0.36640   0.17641   0.38975   1.000
    O263    O    0.62207   0.07617   0.37768   1.000
    O264    O    0.53998   0.00457   0.38341   1.000
    O265    O    0.29047   0.28467   0.40789   1.000
    O266    O    0.90403   0.60736   0.40297   1.000
    O267    O    0.21191   0.16515   0.41612   1.000
    O268    O    0.63315   0.10592   0.42715   1.000
    O269    O    0.02201   0.55200   0.40211   1.000
    O270    O    0.04306   0.49955   0.41936   1.000
    O271    O    0.00000   0.46226   0.44113   1.000
    O272    O    0.11460   0.48019   0.41985   1.000
    O273    O    0.45270   0.02064   0.41131   1.000
    O274    O    0.52680   0.89875   0.45176   1.000
    O275    O    0.42308   0.92491   0.46821   1.000
    O276    O    0.02218   0.58856   0.46238   1.000
    O277    O    0.07091   0.55918   0.46632   1.000
    O278    O    0.41385   0.11374   0.42615   1.000
    O279    O    0.40845   0.15348   0.46417   1.000
    O280    O    0.96424   0.58380   0.47328   1.000
    O281    O    0.91918   0.54651   0.49504   1.000
    O282    O    0.04306   0.44719   0.46539   1.000
    O283    O    0.09197   0.50672   0.48357   1.000
    O284    O    0.86481   0.45959   0.46713   1.000
    O285    O    0.57327   0.07373   0.53452   1.000
    O286    O    0.00000   0.38122   0.47761   1.000
    O287    O    0.90439   0.49092   0.51923   1.000
    O288    O    0.92544   0.43846   0.53648   1.000
    O289    O    0.03411   0.41384   0.52953   1.000
    O290    O    0.46952   0.09979   0.55098   1.000
    O291    O    0.58785   0.84506   0.53856   1.000
    O292    O    0.00148   0.61642   0.52519   1.000
    O293    O    0.13155   0.53805   0.53567   1.000
    O294    O    0.05592   0.50599   0.56561   1.000
    O295    O    0.36316   0.89276   0.57559   1.000
    O296    O    0.78440   0.83349   0.58660   1.000
    O297    O    0.70586   0.71410   0.59445   1.000
    O298    O    0.88175   0.51746   0.58295   1.000
    O299    O    0.96213   0.49809   0.58344   1.000
    O300    O    0.01028   0.41302   0.58279   1.000
    O301    O    0.04114   0.45040   0.58980   1.000
    O302    O    0.09233   0.39028   0.59984   1.000
    O303    O    0.58248   0.88482   0.57655   1.000
    O304    O    0.62991   0.82212   0.61296   1.000
    O305    O    0.54365   0.97792   0.59140   1.000
    O306    O    0.16828   0.87380   0.62518   1.000
    O307    O    0.93785   0.37767   0.62886   1.000
    O308    O    0.24740   0.75465   0.63292   1.000
    O309    O    0.45627   0.01935   0.61935   1.000
    O310    O    0.50960   0.06869   0.66014   1.000
    O311    O    0.02137   0.47546   0.66008   1.000
    O312    O    0.32360   0.86403   0.65273   1.000
    O313    O    0.71692   0.79850   0.63900   1.000
    O314    O    0.79406   0.75266   0.65750   1.000
    O315    O    0.79789   0.78821   0.68332   1.000
    O316    O    0.76456   0.70786   0.66043   1.000
    O317    O    0.72059   0.67124   0.69060   1.000
    O318    O    0.69330   0.81133   0.68341   1.000
    O319    O    0.64555   0.73910   0.68784   1.000
    O320    O    0.23590   0.83907   0.67746   1.000
    O321    O    0.15875   0.79292   0.69619   1.000
    O322    O    0.15491   0.82869   0.72180   1.000
    O323    O    0.84874   0.68802   0.67892   1.000
    O324    O    0.18846   0.74829   0.69904   1.000
    O325    O    0.23261   0.71190   0.72906   1.000
    O326    O    0.25939   0.85199   0.72188   1.000
    O327    O    0.30744   0.77989   0.72622   1.000
    O328    O    0.72186   0.86758   0.70478   1.000
    O329    O    0.10415   0.72784   0.71801   1.000
    O330    O    0.59415   0.67524   0.71673   1.000
    O331    O    0.04954   0.49633   0.71871   1.000
    O332    O    0.01271   0.43401   0.74884   1.000
    O333    O    0.77427   0.80103   0.72773   1.000
    O334    O    0.73236   0.78644   0.77364   1.000
    O335    O    0.51409   0.06443   0.75376   1.000
    O336    O    0.67872   0.65663   0.73651   1.000
    O337    O    0.65506   0.66954   0.78093   1.000
    O338    O    0.04540   0.49221   0.81228   1.000
    O339    O    0.85887   0.78250   0.74749   1.000
    O340    O    0.80741   0.71855   0.77649   1.000
    O341    O    0.35904   0.71599   0.75520   1.000
    O342    O    0.73131   0.59014   0.75961   1.000
    O343    O    0.75961   0.64638   0.78085   1.000
    O344    O    0.17841   0.84162   0.76623   1.000
    O345    O    0.22021   0.82706   0.81214   1.000
    O346    O    0.27445   0.69736   0.77497   1.000
    O347    O    0.29791   0.71020   0.81939   1.000
    O348    O    0.60392   0.77032   0.78472   1.000
    O349    O    0.68825   0.74999   0.80367   1.000
    O350    O    0.65870   0.70532   0.80654   1.000
    O351    O    0.54966   0.01509   0.78411   1.000
    O352    O    0.09385   0.82288   0.78603   1.000
    O353    O    0.14542   0.75911   0.81489   1.000
    O354    O    0.00857   0.42989   0.84240   1.000
    O355    O    0.22221   0.63074   0.79792   1.000
    O356    O    0.19341   0.68695   0.81929   1.000
    O357    O    0.52183   0.02264   0.84262   1.000
    O358    O    0.73596   0.65929   0.82526   1.000
    O359    O    0.82367   0.63446   0.84999   1.000
    O360    O    0.34840   0.81045   0.82380   1.000
    O361    O    0.26424   0.79049   0.84230   1.000
    O362    O    0.29388   0.74574   0.84521   1.000
    O363    O    0.74705   0.74372   0.86978   1.000
    O364    O    0.43847   0.12076   0.87385   1.000
    O365    O    0.66834   0.62445   0.87756   1.000
    O366    O    0.21687   0.69980   0.86371   1.000
    O367    O    0.12986   0.67609   0.88973   1.000
    O368    O    0.87429   0.57607   0.87764   1.000
    O369    O    0.95639   0.50441   0.88332   1.000
    O370    O    0.20539   0.78416   0.90829   1.000
    O371    O    0.59290   0.10745   0.90308   1.000
    O372    O    0.28432   0.66488   0.91610   1.000
    O373    O    0.86317   0.60584   0.92710   1.000
    O374    O    0.54149   0.04757   0.91298   1.000
    O375    O    0.46232   0.00024   0.91918   1.000
    O376    O    0.50722   0.96275   0.94098   1.000
    O377    O    0.38185   0.98123   0.91956   1.000
    O378    O    0.04362   0.52043   0.91110   1.000
    O379    O    0.08241   0.61345   0.92598   1.000
    O380    O    0.08776   0.65302   0.96419   1.000
    O381    O    0.58326   0.04002   0.95514   1.000
    O382    O    0.63155   0.00000   0.96715   1.000
    O383    O    0.50117   0.88173   0.97741   1.000
    O384    O    0.02131   0.55980   0.01280   1.000
    O385    O    0.52143   0.93851   0.48975   1.000
    O386    O    0.97492   0.43836   0.98953   1.000
    O387    O    0.47492   0.06006   0.51296   1.000
    O388    O    0.54518   0.01935   0.69048   1.000
loop_
    _geom_bond_atom_site_label_1
    _geom_bond_atom_site_label_2
    _geom_bond_distance
    _geom_bond_site_symmetry_2
    _ccdc_geom_bond_type
    C160   O172      0.62949      .   S
    C138   O172      0.62949      .   S
    C160   O173      1.24944  1_554   S
    C2     O173      1.24944  1_455   S
    C32    O174      0.59256      .   S
    C92    O174      0.59256      .   S
    C32    O175      0.87834  1_554   S
    C60    O175      0.87834      .   S
    C32    O176      0.88016  1_554   S
    C59    O176      0.88016      .   S
    C33    O177      0.59262      .   S
    C93    O177      0.59262      .   S
    C33    O178      0.85576      .   S
    C134   O178      0.85576  1_565   S
    C33    O179      0.87872  1_554   S
    C60    O179      0.87872      .   S
    C33    O180      0.88097  1_554   S
    C61    O180      0.88097  1_565   S
    C169   O181      0.63401      .   S
    C145   O181      0.63401      .   S
    C169   O182      1.22688  1_554   S
    C2     O182      1.22688      .   S
    C97    O183      0.59334      .   S
    C37    O183      0.59334      .   S
    C98    O184      0.59138      .   S
    C38    O184      0.59138      .   S
    C31    O185      0.59362      .   S
    C91    O185      0.59362      .   S
    C31    O186      0.85555  1_545   S
    C134   O186      0.85555      .   S
    C31    O187      0.68576      .   S
    C63    O187      0.68576  1_556   S
    C29    O188      0.85453      .   S
    C134   O188      0.85453      .   S
    C29    O189      0.59319      .   S
    C89    O189      0.59319      .   S
    C29    O190      0.88207      .   S
    C61    O190      0.88207  1_556   S
    C29    O191      0.88017      .   S
    C62    O191      0.88017  1_556   S
    C138   O192      0.64174      .   S
    C161   O192      0.64174      .   S
    C138   O193      0.75878      .   S
    C136   O193      0.75878      .   S
    C161   O194      1.22212      .   S
    C0     O194      1.22212      .   S
    C115   O195      0.59327      .   S
    C55    O195      0.59327      .   S
    C30    O196      0.59164      .   S
    C90    O196      0.59164      .   S
    C30    O197      0.87819      .   S
    C62    O197      0.87819  1_556   S
    C116   O198      0.59179      .   S
    C56    O198      0.59179      .   S
    C0     O199      1.19725  1_655   S
    C168   O199      1.19725      .   S
    C0     O200      1.23911      .   S
    C153   O200      1.23911  1_455   S
    C0     O201      1.23915      .   S
    C152   O201      1.23915      .   S
    C0     O202      1.22672      .   S
    C157   O202      1.22672  1_556   S
    C0     O203      1.24879  1_655   S
    C148   O203      1.24879  1_556   S
    C134   O204      0.75984      .   S
    C135   O204      0.75984      .   S
    C145   O205      0.63459      .   S
    C168   O205      0.63459      .   S
    C145   O206      0.76266      .   S
    C143   O206      0.76266      .   S
    C37    O207      0.85471      .   S
    C136   O207      0.85471      .   S
    C37    O208      0.87938      .   S
    C43    O208      0.87938      .   S
    C37    O209      0.88302      .   S
    C42    O209      0.88302      .   S
    C38    O210      0.87665      .   S
    C43    O210      0.87665      .   S
    C38    O211      0.87724      .   S
    C39    O211      0.87724      .   S
    C136   O212      0.85614      .   S
    C36    O212      0.85614      .   S
    C136   O213      0.85496      .   S
    C34    O213      0.85496      .   S
    C55    O214      0.85501      .   S
    C143   O214      0.85501      .   S
    C55    O215      0.88146      .   S
    C50    O215      0.88146      .   S
    C55    O216      0.88193      .   S
    C49    O216      0.88193      .   S
    C103   O217      0.59254      .   S
    C43    O217      0.59254      .   S
    C56    O218      0.87981      .   S
    C50    O218      0.87981      .   S
    C56    O219      0.87831      .   S
    C51    O219      0.87831      .   S
    C143   O220      0.85694      .   S
    C54    O220      0.85694      .   S
    C143   O221      0.85480      .   S
    C57    O221      0.85480      .   S
    C96    O222      0.59305      .   S
    C36    O222      0.59305      .   S
    C110   O223      0.59302      .   S
    C50    O223      0.59302      .   S
    C94    O224      0.59301      .   S
    C34    O224      0.59301      .   S
    C135   O225      0.63925      .   S
    C158   O225      0.63925  1_545   S
    C135   O226      0.63735      .   S
    C159   O226      0.63735      .   S
    C36    O227      0.88030      .   S
    C42    O227      0.88030      .   S
    C36    O228      0.87830      .   S
    C41    O228      0.87830      .   S
    C153   O229      0.59004      .   S
    C129   O229      0.59004      .   S
    C34    O230      0.87921      .   S
    C39    O230      0.87921      .   S
    C34    O231      0.88191      .   S
    C40    O231      0.88191      .   S
    C158   O232      1.23875  1_545   S
    C1     O232      1.23875      .   S
    C114   O233      0.59232      .   S
    C54    O233      0.59232      .   S
    C42    O234      0.59337      .   S
    C102   O234      0.59337      .   S
    C42    O235      0.85480      .   S
    C137   O235      0.85480      .   S
    C117   O236      0.59339      .   S
    C57    O236      0.59339      .   S
    C39    O237      0.59247      .   S
    C99    O237      0.59247      .   S
    C39    O238      0.85691      .   S
    C137   O238      0.85691      .   S
    C54    O239      0.87920      .   S
    C49    O239      0.87920      .   S
    C54    O240      0.87733      .   S
    C53    O240      0.87733      .   S
    C57    O241      0.88026      .   S
    C51    O241      0.88026      .   S
    C57    O242      0.88304      .   S
    C52    O242      0.88304      .   S
    C35    O243      0.59302      .   S
    C95    O243      0.59302      .   S
    C35    O244      0.87984      .   S
    C41    O244      0.87984      .   S
    C35    O245      0.88150      .   S
    C40    O245      0.88150      .   S
    C152   O246      0.78942      .   S
    C129   O246      0.78942  1_455   S
    C49    O247      0.59300      .   S
    C109   O247      0.59300      .   S
    C49    O248      0.85506      .   S
    C142   O248      0.85506      .   S
    C159   O249      1.23919      .   S
    C1     O249      1.23919      .   S
    C51    O250      0.59303      .   S
    C111   O250      0.59303      .   S
    C51    O251      0.85622      .   S
    C142   O251      0.85622      .   S
    C129   O252      0.75140      .   S
    C128   O252      0.75140      .   S
    C137   O253      0.85502      .   S
    C40    O253      0.85502      .   S
    C137   O254      0.76264      .   S
    C139   O254      0.76264      .   S
    C58    O255      0.59257      .   S
    C118   O255      0.59257      .   S
    C58    O256      0.87673      .   S
    C53    O256      0.87673      .   S
    C58    O257      0.87938      .   S
    C52    O257      0.87938      .   S
    C41    O258      0.59178      .   S
    C101   O258      0.59178      .   S
    C40    O259      0.59325      .   S
    C100   O259      0.59325      .   S
    C75    O260      0.59165      .   S
    C15    O260      0.59165      .   S
    C142   O261      0.85486      .   S
    C52    O261      0.85486      .   S
    C142   O262      0.75897      .   S
    C144   O262      0.75897      .   S
    C162   O263      0.63469      .   S
    C139   O263      0.63469      .   S
    C162   O264      1.19764      .   S
    C1     O264      1.19764  1_565   S
    C53    O265      0.59139      .   S
    C113   O265      0.59139      .   S
    C74    O266      0.59317      .   S
    C14    O266      0.59317      .   S
    C52    O267      0.59335      .   S
    C112   O267      0.59335      .   S
    C139   O268      0.63405      .   S
    C163   O268      0.63405      .   S
    C128   O269      0.79283      .   S
    C15    O269      0.79283      .   S
    C128   O270      0.73442      .   S
    C16    O270      0.73442      .   S
    C128   O271      0.85038      .   S
    C17    O271      0.85038      .   S
    C76    O272      0.59364      .   S
    C16    O272      0.59364      .   S
    C1     O273      1.22243  1_565   S
    C167   O273      1.22243      .   S
    C1     O274      1.24992      .   S
    C154   O274      1.24992      .   S
    C1     O275      1.22612      .   S
    C151   O275      1.22612      .   S
    C15    O276      0.87807      .   S
    C47    O276      0.87807      .   S
    C15    O277      0.87855      .   S
    C48    O277      0.87855      .   S
    C167   O278      0.64171      .   S
    C144   O278      0.64171      .   S
    C144   O279      0.62956      .   S
    C166   O279      0.62956      .   S
    C14    O280      0.88014      .   S
    C47    O280      0.88014  1_455   S
    C14    O281      0.88187      .   S
    C46    O281      0.88187      .   S
    C16    O282      0.87042      .   S
    C17    O282      0.87042      .   S
    C16    O283      0.88081      .   S
    C48    O283      0.88081      .   S
    C78    O284      0.59259      .   S
    C18    O284      0.59259      .   S
    C163   O285      1.22629      .   S
    C3     O285      1.22629      .   S
    C77    O286      0.59229      .   S
    C17    O286      0.59229      .   S
    C18    O287      0.88080      .   S
    C46    O287      0.88080      .   S
    C18    O288      0.87854      .   S
    C45    O288      0.87854      .   S
    C17    O289      0.86169      .   S
    C44    O289      0.86169      .   S
    C166   O290      1.25008      .   S
    C3     O290      1.25008      .   S
    C154   O291      0.62955      .   S
    C132   O291      0.62955      .   S
    C47    O292      0.59255      .   S
    C107   O292      0.59255      .   S
    C48    O293      0.59260      .   S
    C108   O293      0.59260      .   S
    C48    O294      0.85554      .   S
    C140   O294      0.85554      .   S
    C151   O295      0.63404      .   S
    C127   O295      0.63404      .   S
    C82    O296      0.59335      .   S
    C22    O296      0.59335      .   S
    C83    O297      0.59138      .   S
    C23    O297      0.59138      .   S
    C46    O298      0.59363      .   S
    C106   O298      0.59363      .   S
    C46    O299      0.85550      .   S
    C140   O299      0.85550  1_455   S
    C44    O300      0.88927      .   S
    C45    O300      0.88927  1_655   S
    C44    O301      0.85444      .   S
    C140   O301      0.85444      .   S
    C44    O302      0.59318      .   S
    C104   O302      0.59318      .   S
    C132   O303      0.64175      .   S
    C155   O303      0.64175      .   S
    C132   O304      0.75896      .   S
    C130   O304      0.75896      .   S
    C155   O305      1.22253      .   S
    C3     O305      1.22253  1_545   S
    C70    O306      0.59325      .   S
    C10    O306      0.59325      .   S
    C45    O307      0.59164      .   S
    C105   O307      0.59164      .   S
    C71    O308      0.59179      .   S
    C11    O308      0.59179      .   S
    C3     O309      1.01926      .   S
    C150   O309      1.01926      .   S
    C3     O310      1.23864      .   S
    C171   O310      1.23864      .   S
    C140   O311      0.75969      .   S
    C141   O311      0.75969      .   S
    C127   O312      0.76276      .   S
    C125   O312      0.76276      .   S
    C22    O313      0.85483      .   S
    C130   O313      0.85483      .   S
    C22    O314      0.87939      .   S
    C28    O314      0.87939      .   S
    C22    O315      0.88300      .   S
    C27    O315      0.88300      .   S
    C23    O316      0.87670      .   S
    C28    O316      0.87670      .   S
    C23    O317      0.87727      .   S
    C24    O317      0.87727      .   S
    C130   O318      0.85620      .   S
    C21    O318      0.85620      .   S
    C130   O319      0.85507      .   S
    C19    O319      0.85507      .   S
    C10    O320      0.85507      .   S
    C125   O320      0.85507      .   S
    C10    O321      0.88148      .   S
    C5     O321      0.88148      .   S
    C10    O322      0.88192      .   S
    C4     O322      0.88192      .   S
    C88    O323      0.59256      .   S
    C28    O323      0.59256      .   S
    C11    O324      0.87983      .   S
    C5     O324      0.87983      .   S
    C11    O325      0.87835      .   S
    C6     O325      0.87835      .   S
    C125   O326      0.85687      .   S
    C9     O326      0.85687      .   S
    C125   O327      0.85490      .   S
    C12    O327      0.85490      .   S
    C81    O328      0.59302      .   S
    C21    O328      0.59302      .   S
    C65    O329      0.59303      .   S
    C5     O329      0.59303      .   S
    C79    O330      0.59300      .   S
    C19    O330      0.59300      .   S
    C141   O331      0.63915      .   S
    C164   O331      0.63915      .   S
    C141   O332      0.63731      .   S
    C165   O332      0.63731  1_655   S
    C21    O333      0.88030      .   S
    C27    O333      0.88030      .   S
    C21    O334      0.87830      .   S
    C26    O334      0.87830      .   S
    C171   O335      0.63739      .   S
    C147   O335      0.63739      .   S
    C19    O336      0.87920      .   S
    C24    O336      0.87920      .   S
    C19    O337      0.88189      .   S
    C25    O337      0.88189      .   S
    C164   O338      1.23830      .   S
    C2     O338      1.23830      .   S
    C27    O339      0.59338      .   S
    C87    O339      0.59338      .   S
    C27    O340      0.85478      .   S
    C131   O340      0.85478      .   S
    C72    O341      0.59338      .   S
    C12    O341      0.59338      .   S
    C24    O342      0.59232      .   S
    C84    O342      0.59232      .   S
    C24    O343      0.85692      .   S
    C131   O343      0.85692      .   S
    C9     O344      0.87920      .   S
    C4     O344      0.87920      .   S
    C9     O345      0.87729      .   S
    C8     O345      0.87729      .   S
    C12    O346      0.88034      .   S
    C6     O346      0.88034      .   S
    C12    O347      0.88306      .   S
    C7     O347      0.88306      .   S
    C20    O348      0.59301      .   S
    C80    O348      0.59301      .   S
    C20    O349      0.87982      .   S
    C26    O349      0.87982      .   S
    C20    O350      0.88150      .   S
    C25    O350      0.88150      .   S
    C170   O351      0.44592      .   S
    C147   O351      0.44592      .   S
    C4     O352      0.59301      .   S
    C64    O352      0.59301      .   S
    C4     O353      0.85496      .   S
    C124   O353      0.85496      .   S
    C165   O354      1.23896  1_655   S
    C2     O354      1.23896      .   S
    C6     O355      0.59304      .   S
    C66    O355      0.59304      .   S
    C6     O356      0.85619      .   S
    C124   O356      0.85619      .   S
    C147   O357      0.75987      .   S
    C146   O357      0.75987      .   S
    C131   O358      0.85497      .   S
    C25    O358      0.85497      .   S
    C131   O359      0.76261      .   S
    C133   O359      0.76261      .   S
    C13    O360      0.59255      .   S
    C73    O360      0.59255      .   S
    C13    O361      0.87672      .   S
    C8     O361      0.87672      .   S
    C13    O362      0.87943      .   S
    C7     O362      0.87943      .   S
    C26    O363      0.59178      .   S
    C86    O363      0.59178      .   S
    C120   O364      0.59166      .   S
    C60    O364      0.59166      .   S
    C25    O365      0.59326      .   S
    C85    O365      0.59326      .   S
    C124   O366      0.85480      .   S
    C7     O366      0.85480      .   S
    C124   O367      0.75890      .   S
    C126   O367      0.75890      .   S
    C156   O368      0.63455      .   S
    C133   O368      0.63455      .   S
    C156   O369      1.19757      .   S
    C2     O369      1.19757  1_455   S
    C8     O370      0.59138      .   S
    C68    O370      0.59138      .   S
    C119   O371      0.59317      .   S
    C59    O371      0.59317      .   S
    C7     O372      0.59335      .   S
    C67    O372      0.59335      .   S
    C133   O373      0.63405      .   S
    C157   O373      0.63405      .   S
    C146   O374      0.85457      .   S
    C59    O374      0.85457      .   S
    C146   O375      0.85567      .   S
    C61    O375      0.85567  1_565   S
    C146   O376      0.85689  1_545   S
    C62    O376      0.85689      .   S
    C121   O377      0.59365      .   S
    C61    O377      0.59365      .   S
    C2     O378      1.22207      .   S
    C149   O378      1.22207      .   S
    C149   O379      0.64165      .   S
    C126   O379      0.64165      .   S
    C126   O380      0.62957      .   S
    C148   O380      0.62957      .   S
    C59    O381      0.65737      .   S
    C63    O381      0.65737      .   S
    C123   O382      0.54345      .   S
    C63    O382      0.54345      .   S
    C122   O383      0.59252      .   S
    C62    O383      0.59252      .   S
    C149   O384      1.42770  1_556   S
    C0     O384      1.42770  1_655   S
    C155   O385      1.42656      .   S
    C1     O385      1.42656      .   S
    C161   O386      1.42489  1_554   S
    C2     O386      1.42489  1_455   S
    C167   O387      1.42689      .   S
    C3     O387      1.42689      .   S
    C170   O388      1.27610      .   S
    C3     O388      1.27610      .   S
