# CIF file generated by openbabel 2.4.90, see http://openbabel.sf.net
data_I
_chemical_name_common ''
_cell_length_a 15.137
_cell_length_b 17.67
_cell_length_c 15.41
_cell_angle_alpha 61.016
_cell_angle_beta 89.944
_cell_angle_gamma 89.954
_space_group_name_H-M_alt 'P 1'
_space_group_name_Hall 'P 1'
loop_
    _symmetry_equiv_pos_as_xyz
    x,y,z
loop_
    _atom_site_label
    _atom_site_type_symbol
    _atom_site_fract_x
    _atom_site_fract_y
    _atom_site_fract_z
    _atom_site_occupancy
    N0      N    0.72655   0.72875   0.73156   1.000
    N1      N    0.49834   0.00314   0.00133   1.000
    N2      N    0.76983   0.22877   0.23147   1.000
    N3      N    0.21982   0.75592   0.77781   1.000
    N4      N    0.00035   0.49882   0.50140   1.000
    N5      N    0.26977   0.26965   0.27101   1.000
    Zr6     Zr   0.02041   0.45966   0.89958   1.000
    O7      O    0.01243   0.46201   0.78574   1.000
    O8      O    0.09597   0.40337   0.00956   1.000
    O9      O    0.02164   0.47759   0.77821   1.000
    O10     O    0.07607   0.54892   0.87202   1.000
    O11     O    0.94639   0.39662   0.00504   1.000
    O12     O    0.94505   0.38668   0.99555   1.000
    O13     O    0.93094   0.53812   0.85351   1.000
    Zr14    Zr   0.47596   0.95987   0.39972   1.000
    O15     O    0.39871   0.90014   0.51136   1.000
    O16     O    0.48449   0.96325   0.28581   1.000
    O17     O    0.47531   0.97885   0.27830   1.000
    O18     O    0.56543   0.03827   0.35358   1.000
    O19     O    0.41860   0.05251   0.37044   1.000
    O20     O    0.54998   0.89675   0.50519   1.000
    O21     O    0.55132   0.88681   0.49569   1.000
    Zr22    Zr   0.97578   0.53839   0.10298   1.000
    O23     O    0.06530   0.46005   0.14901   1.000
    O24     O    0.98495   0.53590   0.21691   1.000
    O25     O    0.97570   0.52030   0.22444   1.000
    O26     O    0.04951   0.60802   0.00869   1.000
    O27     O    0.04817   0.59812   0.99914   1.000
    O28     O    0.90027   0.59477   0.99300   1.000
    O29     O    0.91850   0.44582   0.13216   1.000
    Zr30    Zr   0.45627   0.01935   0.61935   1.000
    O31     O    0.41431   0.09210   0.50567   1.000
    O32     O    0.56391   0.08530   0.50118   1.000
    O33     O    0.48012   0.02763   0.72505   1.000
    O34     O    0.48902   0.01529   0.73263   1.000
    O35     O    0.41296   0.10203   0.51517   1.000
    O36     O    0.54569   0.93634   0.64042   1.000
    Zr37    Zr   0.23393   0.00000   0.73347   1.000
loop_
    _geom_bond_atom_site_label_1
    _geom_bond_atom_site_label_2
    _geom_bond_distance
    _geom_bond_site_symmetry_2
    _ccdc_geom_bond_type
    Zr6    O7        1.73888      .   S
    N4     O7        4.11035      .   S
    Zr6    O8        1.88091  1_556   S
    N5     O8        4.41840      .   S
    Zr6    O9        1.73914      .   S
    N4     O9        4.10996      .   S
    Zr6    O10       1.65222      .   S
    N3     O10       3.88355      .   S
    Zr6    O11       1.83885  1_456   S
    N2     O11       4.25197      .   S
    Zr6    O12       1.81722  1_455   S
    N2     O12       4.26606  1_554   S
    Zr6    O13       1.81801  1_455   S
    N0     O13       4.27901      .   S
    Zr14   O15       1.91822      .   S
    N3     O15       4.53142      .   S
    Zr14   O16       1.73193      .   S
    N1     O16       4.09411  1_545   S
    Zr14   O17       1.73364      .   S
    N1     O17       4.09191  1_545   S
    Zr14   O18       1.81809  1_565   S
    N2     O18       4.27918      .   S
    Zr14   O19       1.70874  1_565   S
    N5     O19       4.05462      .   S
    Zr14   O20       1.83996      .   S
    N0     O20       4.25377      .   S
    Zr14   O21       1.81812      .   S
    N0     O21       4.26803      .   S
    Zr22   O23       1.81729  1_655   S
    N5     O23       4.27764      .   S
    Zr22   O24       1.74048      .   S
    N4     O24       4.11355  1_455   S
    Zr22   O25       1.73949      .   S
    N4     O25       4.11481  1_455   S
    Zr22   O26       1.77114  1_655   S
    N3     O26       4.13721  1_556   S
    Zr22   O27       1.79915  1_654   S
    N3     O27       4.11537      .   S
    Zr22   O28       1.88070  1_554   S
    N0     O28       4.41790      .   S
    Zr22   O29       1.70827      .   S
    N2     O29       4.05391      .   S
    Zr30   O31       1.71565      .   S
    N5     O31       4.08845      .   S
    Zr30   O32       2.29558      .   S
    N2     O32       4.81585      .   S
    Zr30   O33       1.74262      .   S
    N1     O33       4.07518  1_554   S
    Zr30   O34       1.78281      .   S
    N1     O34       4.04362  1_554   S
    Zr30   O35       1.69390      .   S
    N5     O35       4.10273      .   S
    Zr30   O36       1.90385  1_545   S
    N0     O36       4.23335      .   S
