# CIF file generated by openbabel 2.4.90, see http://openbabel.sf.net
data_I
_chemical_name_common ''
_cell_length_a 21.836
_cell_length_b 13.243
_cell_length_c 13.24
_cell_angle_alpha 119.454
_cell_angle_beta 90.024
_cell_angle_gamma 90.096
_space_group_name_H-M_alt 'P 1'
_space_group_name_Hall 'P 1'
loop_
    _symmetry_equiv_pos_as_xyz
    x,y,z
loop_
    _atom_site_label
    _atom_site_type_symbol
    _atom_site_fract_x
    _atom_site_fract_y
    _atom_site_fract_z
    _atom_site_occupancy
    N0      N    0.50001   0.50005   0.00000   1.000
    N1      N    0.00001   0.50005   0.00000   1.000
    N2      N    0.50001   0.50004   0.50001   1.000
    N3      N    0.00001   0.50005   0.50001   1.000
    N4      N    0.50001   0.00005   0.50001   1.000
    N5      N    0.00001   0.00004   0.50000   1.000
    Zr6     Zr   0.74999   0.33185   0.66745   1.000
    O7      O    0.82027   0.23119   0.60752   1.000
    O8      O    0.67965   0.37369   0.60748   1.000
    O9      O    0.82033   0.39202   0.62581   1.000
    O10     O    0.67966   0.23111   0.62605   1.000
    O11     O    0.82035   0.37353   0.76841   1.000
    O12     O    0.67972   0.39195   0.76830   1.000
    Zr13    Zr   0.25004   0.66824   0.33257   1.000
    O14     O    0.32038   0.62640   0.39254   1.000
    O15     O    0.17970   0.60807   0.37421   1.000
    O16     O    0.32036   0.76898   0.37397   1.000
    O17     O    0.32030   0.60814   0.23171   1.000
    O18     O    0.17975   0.76890   0.39248   1.000
    O19     O    0.17968   0.62656   0.23161   1.000
    Zr20    Zr   0.75004   0.66731   0.33244   1.000
    O21     O    0.67971   0.60732   0.37406   1.000
    O22     O    0.82035   0.62575   0.39251   1.000
    O23     O    0.67973   0.76819   0.39236   1.000
    O24     O    0.67971   0.62588   0.23152   1.000
    O25     O    0.82039   0.76826   0.37390   1.000
    O26     O    0.82033   0.60743   0.23163   1.000
    Zr27    Zr   0.24999   0.33278   0.66759   1.000
    O28     O    0.32032   0.39277   0.62597   1.000
    O29     O    0.17968   0.37434   0.60752   1.000
    O30     O    0.32030   0.23190   0.60767   1.000
    O31     O    0.17970   0.39266   0.76839   1.000
    O32     O    0.32032   0.37421   0.76850   1.000
    O33     O    0.17964   0.23183   0.62612   1.000
loop_
    _geom_bond_atom_site_label_1
    _geom_bond_atom_site_label_2
    _geom_bond_distance
    _geom_bond_site_symmetry_2
    _ccdc_geom_bond_type
    Zr6    O7        1.93119      .   S
    N5     O7        4.74973  1_455   S
    Zr6    O8        1.93169      .   S
    N2     O8        4.75075      .   S
    Zr6    O9        1.93048      .   S
    N3     O9        4.74814  1_455   S
    Zr6    O10       1.92658      .   S
    N4     O10       4.74022      .   S
    Zr6    O11       1.92909      .   S
    N1     O11       4.74512  1_454   S
    Zr6    O12       1.93169      .   S
    N0     O12       4.75068  1_554   S
    Zr13   O14       1.93167      .   S
    N2     O14       4.75071      .   S
    Zr13   O15       1.93049      .   S
    N3     O15       4.74815      .   S
    Zr13   O16       1.92656      .   S
    N4     O16       4.74018  1_545   S
    Zr13   O17       1.93171      .   S
    N0     O17       4.75076      .   S
    Zr13   O18       1.93118      .   S
    N5     O18       4.74973  1_545   S
    Zr13   O19       1.92913      .   S
    N1     O19       4.74523      .   S
    Zr20   O21       1.92889      .   S
    N2     O21       4.74467      .   S
    Zr20   O22       1.92988      .   S
    N3     O22       4.74723  1_455   S
    Zr20   O23       1.93318      .   S
    N4     O23       4.75393  1_545   S
    Zr20   O24       1.92863      .   S
    N0     O24       4.74485      .   S
    Zr20   O25       1.92848      .   S
    N5     O25       4.74422  1_445   S
    Zr20   O26       1.93151      .   S
    N1     O26       4.74994  1_455   S
    Zr27   O28       1.92888      .   S
    N2     O28       4.74466      .   S
    Zr27   O29       1.92990      .   S
    N3     O29       4.74726      .   S
    Zr27   O30       1.93317      .   S
    N4     O30       4.75392      .   S
    Zr27   O31       1.93147      .   S
    N1     O31       4.74984  1_554   S
    Zr27   O32       1.92857      .   S
    N0     O32       4.74472  1_554   S
    Zr27   O33       1.92851      .   S
    N5     O33       4.74430      .   S
