# CIF file generated by openbabel 2.4.90, see http://openbabel.sf.net
data_I
_chemical_name_common ''
_cell_length_a 21.836
_cell_length_b 13.243
_cell_length_c 13.24
_cell_angle_alpha 119.454
_cell_angle_beta 90.024
_cell_angle_gamma 90.096
_space_group_name_H-M_alt 'P 1'
_space_group_name_Hall 'P 1'
loop_
    _symmetry_equiv_pos_as_xyz
    x,y,z
loop_
    _atom_site_label
    _atom_site_type_symbol
    _atom_site_fract_x
    _atom_site_fract_y
    _atom_site_fract_z
    _atom_site_occupancy
    C0      C    0.25004   0.66824   0.33257   1.000
    C1      C    0.75004   0.66731   0.33244   1.000
    C2      C    0.24999   0.33278   0.66759   1.000
    C3      C    0.74999   0.33185   0.66745   1.000
    C4      C    0.44490   0.57469   0.18744   1.000
    C5      C    0.94503   0.57388   0.18748   1.000
    C6      C    0.44538   0.61525   0.42617   1.000
    C7      C    0.94530   0.61600   0.42713   1.000
    C8      C    0.44504   0.81300   0.38459   1.000
    C9      C    0.94537   0.81268   0.38430   1.000
    C10     C    0.05474   0.61581   0.18726   1.000
    C11     C    0.55472   0.61600   0.18724   1.000
    C12     C    0.05510   0.81281   0.42610   1.000
    C13     C    0.55475   0.81247   0.42630   1.000
    C14     C    0.05497   0.57474   0.38572   1.000
    C15     C    0.55502   0.57343   0.38463   1.000
    C16     C    0.05499   0.42621   0.81250   1.000
    C17     C    0.55512   0.42541   0.81258   1.000
    C18     C    0.05472   0.38410   0.57289   1.000
    C19     C    0.55464   0.38483   0.57386   1.000
    C20     C    0.05465   0.18741   0.61571   1.000
    C21     C    0.55498   0.18710   0.61544   1.000
    C22     C    0.44530   0.38410   0.81278   1.000
    C23     C    0.94528   0.38428   0.81277   1.000
    C24     C    0.44527   0.18763   0.57372   1.000
    C25     C    0.94492   0.18728   0.57392   1.000
    C26     C    0.44500   0.42666   0.61540   1.000
    C27     C    0.94505   0.42535   0.61430   1.000
    C28     C    0.46907   0.54204   0.10523   1.000
    C29     C    0.96915   0.54161   0.10527   1.000
    C30     C    0.33886   0.49193   0.10320   1.000
    C31     C    0.83901   0.49101   0.10322   1.000
    C32     C    0.46933   0.56463   0.45846   1.000
    C33     C    0.96929   0.56502   0.45898   1.000
    C34     C    0.33929   0.61305   0.50890   1.000
    C35     C    0.83915   0.61248   0.50900   1.000
    C36     C    0.46915   0.89504   0.43527   1.000
    C37     C    0.96933   0.89487   0.43512   1.000
    C38     C    0.33918   0.89786   0.38641   1.000
    C39     C    0.83927   0.89695   0.38638   1.000
    C40     C    0.03074   0.56497   0.10513   1.000
    C41     C    0.53074   0.56505   0.10511   1.000
    C42     C    0.16079   0.61382   0.10260   1.000
    C43     C    0.66095   0.61308   0.10257   1.000
    C44     C    0.03094   0.89493   0.45840   1.000
    C45     C    0.53075   0.89473   0.45851   1.000
    C46     C    0.16113   0.89742   0.50884   1.000
    C47     C    0.66097   0.89652   0.50856   1.000
    C48     C    0.03086   0.54204   0.43591   1.000
    C49     C    0.53090   0.54135   0.43534   1.000
    C50     C    0.16085   0.49168   0.38759   1.000
    C51     C    0.66086   0.49063   0.38720   1.000
    C52     C    0.03088   0.45848   0.89476   1.000
    C53     C    0.53095   0.45806   0.89479   1.000
    C54     C    0.16101   0.50908   0.89681   1.000
    C55     C    0.66117   0.50816   0.89680   1.000
    C56     C    0.03074   0.43507   0.54105   1.000
    C57     C    0.53069   0.43545   0.54150   1.000
    C58     C    0.16088   0.38762   0.49103   1.000
    C59     C    0.66073   0.38704   0.49113   1.000
    C60     C    0.03069   0.10522   0.56489   1.000
    C61     C    0.53088   0.10506   0.56476   1.000
    C62     C    0.16075   0.10314   0.61360   1.000
    C63     C    0.66084   0.10223   0.61360   1.000
    C64     C    0.46928   0.43504   0.89491   1.000
    C65     C    0.96928   0.43513   0.89489   1.000
    C66     C    0.33908   0.38701   0.89745   1.000
    C67     C    0.83924   0.38628   0.89741   1.000
    C68     C    0.46927   0.10536   0.54152   1.000
    C69     C    0.96908   0.10516   0.54161   1.000
    C70     C    0.33905   0.10358   0.49147   1.000
    C71     C    0.83890   0.10266   0.49118   1.000
    C72     C    0.46912   0.45874   0.56469   1.000
    C73     C    0.96916   0.45805   0.56411   1.000
    C74     C    0.33916   0.50947   0.61284   1.000
    C75     C    0.83917   0.50841   0.61243   1.000
    C76     C    0.37177   0.45208   0.00021   1.000
    C77     C    0.87190   0.45138   0.00022   1.000
    C78     C    0.43646   0.47640   0.00000   1.000
    C79     C    0.93653   0.47604   0.00010   1.000
    C80     C    0.37197   0.54855   0.54821   1.000
    C81     C    0.87192   0.54789   0.54807   1.000
    C82     C    0.43657   0.52399   0.52380   1.000
    C83     C    0.93655   0.52367   0.52373   1.000
    C84     C    0.37189   0.00058   0.45162   1.000
    C85     C    0.87185   0.99983   0.45152   1.000
    C86     C    0.43653   0.00034   0.47614   1.000
    C87     C    0.93652   0.99996   0.47609   1.000
    C88     C    0.12812   0.54871   0.99980   1.000
    C89     C    0.62826   0.54800   0.99978   1.000
    C90     C    0.06350   0.52404   0.99980   1.000
    C91     C    0.56356   0.52369   0.99987   1.000
    C92     C    0.12817   0.00023   0.54850   1.000
    C93     C    0.62813   0.99949   0.54840   1.000
    C94     C    0.06350   0.00010   0.52393   1.000
    C95     C    0.56349   0.99973   0.52389   1.000
    C96     C    0.12810   0.45220   0.45196   1.000
    C97     C    0.62805   0.45154   0.45182   1.000
    C98     C    0.06348   0.47642   0.47629   1.000
    C99     C    0.56345   0.47610   0.47623   1.000
    C100    C    0.31222   0.52381   0.19084   1.000
    C101    C    0.81239   0.52280   0.19085   1.000
    C102    C    0.31281   0.66987   0.47748   1.000
    C103    C    0.81256   0.66940   0.47782   1.000
    C104    C    0.31270   0.81052   0.32890   1.000
    C105    C    0.81288   0.80946   0.32900   1.000
    C106    C    0.18723   0.67117   0.19001   1.000
    C107    C    0.68743   0.67044   0.18993   1.000
    C108    C    0.18782   0.80992   0.47700   1.000
    C109    C    0.68759   0.80892   0.47662   1.000
    C110    C    0.18738   0.52322   0.33083   1.000
    C111    C    0.68743   0.52192   0.33028   1.000
    C112    C    0.18763   0.47729   0.80917   1.000
    C113    C    0.68780   0.47628   0.80918   1.000
    C114    C    0.18747   0.33070   0.52221   1.000
    C115    C    0.68721   0.33021   0.52254   1.000
    C116    C    0.18714   0.19062   0.67100   1.000
    C117    C    0.68733   0.18957   0.67109   1.000
    C118    C    0.31259   0.32963   0.81009   1.000
    C119    C    0.81279   0.32892   0.81001   1.000
    C120    C    0.31243   0.19117   0.52341   1.000
    C121    C    0.81220   0.19017   0.52294   1.000
    C122    C    0.31259   0.47818   0.66976   1.000
    C123    C    0.81265   0.47687   0.66919   1.000
    O124    O    0.40411   0.46424   0.00010   1.000
    O125    O    0.45277   0.50922   0.05261   1.000
    O126    O    0.45287   0.45572   0.94745   1.000
    O127    O    0.90421   0.46371   0.00016   1.000
    O128    O    0.95284   0.50883   0.05268   1.000
    O129    O    0.95291   0.45559   0.94749   1.000
    O130    O    0.35531   0.47200   0.05170   1.000
    O131    O    0.35542   0.41954   0.94883   1.000
    O132    O    0.85546   0.47120   0.05172   1.000
    O133    O    0.85557   0.41883   0.94881   1.000
    O134    O    0.67419   0.64176   0.14625   1.000
    O135    O    0.64461   0.58054   0.05117   1.000
    O136    O    0.17401   0.64249   0.14630   1.000
    O137    O    0.14446   0.58126   0.05120   1.000
    O138    O    0.32554   0.50787   0.14702   1.000
    O139    O    0.82570   0.50691   0.14703   1.000
    O140    O    0.49991   0.55355   0.10517   1.000
    O141    O    0.54273   0.59053   0.14617   1.000
    O142    O    0.54715   0.54437   0.05249   1.000
    O143    O    0.99994   0.55329   0.10520   1.000
    O144    O    0.04274   0.59039   0.14619   1.000
    O145    O    0.04712   0.54451   0.05246   1.000
    O146    O    0.45699   0.55837   0.14633   1.000
    O147    O    0.95709   0.55775   0.14637   1.000
    O148    O    0.71874   0.66888   0.26118   1.000
    O149    O    0.21863   0.66970   0.26129   1.000
    O150    O    0.28113   0.59603   0.26170   1.000
    O151    O    0.78122   0.59505   0.26164   1.000
    O152    O    0.28137   0.73938   0.33073   1.000
    O153    O    0.32594   0.85419   0.35765   1.000
    O154    O    0.78146   0.73838   0.33072   1.000
    O155    O    0.82608   0.85321   0.35769   1.000
    O156    O    0.71874   0.59462   0.33136   1.000
    O157    O    0.67415   0.50628   0.35874   1.000
    O158    O    0.21871   0.59573   0.33170   1.000
    O159    O    0.17411   0.50745   0.35921   1.000
    O160    O    0.71881   0.73811   0.40453   1.000
    O161    O    0.78130   0.66835   0.40513   1.000
    O162    O    0.21893   0.73908   0.40478   1.000
    O163    O    0.28142   0.66906   0.40502   1.000
    O164    O    0.95735   0.85377   0.40971   1.000
    O165    O    0.45709   0.85402   0.40993   1.000
    O166    O    0.54296   0.55739   0.40998   1.000
    O167    O    0.04292   0.55839   0.41081   1.000
    O168    O    0.85556   0.94839   0.41895   1.000
    O169    O    0.35554   0.94922   0.41901   1.000
    O170    O    0.64446   0.47108   0.41951   1.000
    O171    O    0.14448   0.47194   0.41977   1.000
    O172    O    0.04302   0.85387   0.44225   1.000
    O173    O    0.45736   0.58994   0.44231   1.000
    O174    O    0.54275   0.85360   0.44240   1.000
    O175    O    0.95729   0.59051   0.44305   1.000
    O176    O    0.00014   0.89490   0.44676   1.000
    O177    O    0.95293   0.94741   0.45560   1.000
    O178    O    0.49995   0.89489   0.44689   1.000
    O179    O    0.45284   0.94769   0.45570   1.000
    O180    O    0.50012   0.55299   0.44690   1.000
    O181    O    0.54718   0.50872   0.45578   1.000
    O182    O    0.00008   0.55353   0.44744   1.000
    O183    O    0.04717   0.50923   0.45610   1.000
    O184    O    0.90418   0.99989   0.46380   1.000
    O185    O    0.85538   0.05125   0.47135   1.000
    O186    O    0.40421   0.00046   0.46388   1.000
    O187    O    0.35547   0.05208   0.47154   1.000
    O188    O    0.59575   0.46382   0.46402   1.000
    O189    O    0.64439   0.41929   0.47147   1.000
    O190    O    0.09579   0.46431   0.46412   1.000
    O191    O    0.14449   0.41991   0.47149   1.000
    O192    O    0.04722   0.94751   0.49116   1.000
    O193    O    0.45295   0.54431   0.49113   1.000
    O194    O    0.54712   0.94723   0.49120   1.000
    O195    O    0.95292   0.54435   0.49135   1.000
    O196    O    0.95280   0.05256   0.50885   1.000
    O197    O    0.45290   0.05285   0.50883   1.000
    O198    O    0.54707   0.45577   0.50886   1.000
    O199    O    0.04711   0.45575   0.50867   1.000
    O200    O    0.67428   0.85272   0.49259   1.000
    O201    O    0.17447   0.85367   0.49292   1.000
    O202    O    0.32605   0.64146   0.49319   1.000
    O203    O    0.82585   0.64094   0.49341   1.000
    O204    O    0.17417   0.35916   0.50662   1.000
    O205    O    0.67397   0.35863   0.50683   1.000
    O206    O    0.82555   0.14641   0.50706   1.000
    O207    O    0.32574   0.14738   0.50744   1.000
    O208    O    0.64455   0.94800   0.52848   1.000
    O209    O    0.14465   0.94882   0.52867   1.000
    O210    O    0.35563   0.58080   0.52855   1.000
    O211    O    0.85554   0.58018   0.52853   1.000
    O212    O    0.21873   0.33174   0.59490   1.000
    O213    O    0.71860   0.33103   0.59499   1.000
    O214    O    0.78110   0.26101   0.59519   1.000
    O215    O    0.28121   0.26198   0.59550   1.000
    O216    O    0.90424   0.53578   0.53590   1.000
    O217    O    0.95286   0.49086   0.54392   1.000
    O218    O    0.40427   0.53627   0.53600   1.000
    O219    O    0.45284   0.49136   0.54424   1.000
    O220    O    0.59581   0.99961   0.53614   1.000
    O221    O    0.54718   0.05239   0.54432   1.000
    O222    O    0.09583   0.00016   0.53621   1.000
    O223    O    0.04710   0.05266   0.54441   1.000
    O224    O    0.99995   0.44656   0.55258   1.000
    O225    O    0.04273   0.40958   0.55697   1.000
    O226    O    0.49991   0.44709   0.55309   1.000
    O227    O    0.54267   0.41014   0.55768   1.000
    O228    O    0.50007   0.10521   0.55314   1.000
    O229    O    0.45727   0.14650   0.55762   1.000
    O230    O    0.99988   0.10519   0.55325   1.000
    O231    O    0.95700   0.14622   0.55776   1.000
    O232    O    0.85555   0.52815   0.58025   1.000
    O233    O    0.35557   0.52901   0.58052   1.000
    O234    O    0.64449   0.05086   0.58100   1.000
    O235    O    0.14446   0.05168   0.58105   1.000
    O236    O    0.95711   0.44170   0.58920   1.000
    O237    O    0.45706   0.44270   0.59004   1.000
    O238    O    0.54293   0.14608   0.59010   1.000
    O239    O    0.04267   0.14631   0.59030   1.000
    O240    O    0.82591   0.49264   0.64081   1.000
    O241    O    0.32587   0.49382   0.64130   1.000
    O242    O    0.17395   0.14688   0.64230   1.000
    O243    O    0.67408   0.14590   0.64234   1.000
    O244    O    0.78132   0.40436   0.66832   1.000
    O245    O    0.71866   0.26071   0.66927   1.000
    O246    O    0.71890   0.40406   0.73831   1.000
    O247    O    0.78139   0.33039   0.73873   1.000
    O248    O    0.28129   0.40548   0.66867   1.000
    O249    O    0.21856   0.26170   0.66929   1.000
    O250    O    0.21881   0.40504   0.73838   1.000
    O251    O    0.28129   0.33121   0.73884   1.000
    O252    O    0.17432   0.49318   0.85299   1.000
    O253    O    0.67448   0.49222   0.85299   1.000
    O254    O    0.82601   0.35760   0.85371   1.000
    O255    O    0.32583   0.35832   0.85377   1.000
    O256    O    0.04294   0.44235   0.85363   1.000
    O257    O    0.54304   0.44173   0.85368   1.000
    O258    O    0.95728   0.40971   0.85383   1.000
    O259    O    0.45729   0.40957   0.85384   1.000
    O260    O    0.00008   0.44681   0.89482   1.000
    O261    O    0.04719   0.49126   0.94728   1.000
    O262    O    0.50012   0.44655   0.89485   1.000
    O263    O    0.54726   0.49088   0.94733   1.000
    O264    O    0.64471   0.52808   0.94829   1.000
    O265    O    0.14457   0.52889   0.94830   1.000
    O266    O    0.59591   0.53585   0.99982   1.000
    O267    O    0.09581   0.53638   0.99980   1.000
loop_
    _geom_bond_atom_site_label_1
    _geom_bond_atom_site_label_2
    _geom_bond_distance
    _geom_bond_site_symmetry_2
    _ccdc_geom_bond_type
    C78    O124      0.72436      .   S
    C76    O124      0.72436      .   S
    C78    O125      0.70886      .   S
    C28    O125      0.70886      .   S
    C78    O126      0.70751  1_554   S
    C64    O126      0.70751      .   S
    C79    O127      0.72414      .   S
    C77    O127      0.72414      .   S
    C79    O128      0.70854      .   S
    C29    O128      0.70854      .   S
    C79    O129      0.70805  1_554   S
    C65    O129      0.70805      .   S
    C76    O130      0.69795      .   S
    C30    O130      0.69795      .   S
    C76    O131      0.69771  1_554   S
    C66    O131      0.69771      .   S
    C77    O132      0.69803      .   S
    C31    O132      0.69803      .   S
    C77    O133      0.69783  1_554   S
    C67    O133      0.69783      .   S
    C43    O134      0.58806      .   S
    C107   O134      0.58806      .   S
    C43    O135      0.69783      .   S
    C89    O135      0.69783  1_556   S
    C42    O136      0.58806      .   S
    C106   O136      0.58806      .   S
    C42    O137      0.69778      .   S
    C88    O137      0.69778  1_556   S
    C30    O138      0.58793      .   S
    C100   O138      0.58793      .   S
    C31    O139      0.58786      .   S
    C101   O139      0.58786      .   S
    C41    O140      0.69018      .   S
    C28    O140      0.69018      .   S
    C41    O141      0.54513      .   S
    C11    O141      0.54513      .   S
    C41    O142      0.70829      .   S
    C91    O142      0.70829  1_556   S
    C40    O143      0.68987  1_455   S
    C29    O143      0.68987      .   S
    C40    O144      0.54514      .   S
    C10    O144      0.54514      .   S
    C40    O145      0.70870      .   S
    C90    O145      0.70870  1_556   S
    C28    O146      0.54514      .   S
    C4     O146      0.54514      .   S
    C29    O147      0.54510      .   S
    C5     O147      0.54510      .   S
    C107   O148      1.17323      .   S
    C1     O148      1.17323      .   S
    C106   O149      1.17416      .   S
    C0     O149      1.17416      .   S
    C100   O150      1.17309      .   S
    C0     O150      1.17309      .   S
    C101   O151      1.17399      .   S
    C1     O151      1.17399      .   S
    C104   O152      1.17327      .   S
    C0     O152      1.17327      .   S
    C104   O153      0.58807      .   S
    C38    O153      0.58807      .   S
    C105   O154      1.17313      .   S
    C1     O154      1.17313      .   S
    C105   O155      0.58807      .   S
    C39    O155      0.58807      .   S
    C111   O156      1.17403      .   S
    C1     O156      1.17403      .   S
    C111   O157      0.58802      .   S
    C51    O157      0.58802      .   S
    C110   O158      1.17351      .   S
    C0     O158      1.17351      .   S
    C110   O159      0.58799      .   S
    C50    O159      0.58799      .   S
    C1     O160      1.17375      .   S
    C109   O160      1.17375      .   S
    C1     O161      1.17414      .   S
    C103   O161      1.17414      .   S
    C0     O162      1.17312      .   S
    C108   O162      1.17312      .   S
    C0     O163      1.17445      .   S
    C102   O163      1.17445      .   S
    C9     O164      0.54513      .   S
    C37    O164      0.54513      .   S
    C8     O165      0.54513      .   S
    C36    O165      0.54513      .   S
    C15    O166      0.54515      .   S
    C49    O166      0.54515      .   S
    C14    O167      0.54512      .   S
    C48    O167      0.54512      .   S
    C39    O168      0.69767      .   S
    C85    O168      0.69767      .   S
    C38    O169      0.69769      .   S
    C84    O169      0.69769  1_545   S
    C51    O170      0.69790      .   S
    C97    O170      0.69790      .   S
    C50    O171      0.69796      .   S
    C96    O171      0.69796      .   S
    C12    O172      0.54514      .   S
    C44    O172      0.54514      .   S
    C6     O173      0.54510      .   S
    C32    O173      0.54510      .   S
    C13    O174      0.54511      .   S
    C45    O174      0.54511      .   S
    C7     O175      0.54516      .   S
    C33    O175      0.54516      .   S
    C37    O176      0.68996  1_655   S
    C44    O176      0.68996      .   S
    C37    O177      0.70815      .   S
    C87    O177      0.70815      .   S
    C36    O178      0.69015      .   S
    C45    O178      0.69015      .   S
    C36    O179      0.70821      .   S
    C86    O179      0.70821  1_545   S
    C49    O180      0.69014      .   S
    C32    O180      0.69014      .   S
    C49    O181      0.70833      .   S
    C99    O181      0.70833      .   S
    C48    O182      0.68995      .   S
    C33    O182      0.68995  1_655   S
    C48    O183      0.70831      .   S
    C98    O183      0.70831      .   S
    C85    O184      0.72431      .   S
    C87    O184      0.72431      .   S
    C85    O185      0.69792  1_565   S
    C71    O185      0.69792      .   S
    C84    O186      0.72428      .   S
    C86    O186      0.72428      .   S
    C84    O187      0.69801      .   S
    C70    O187      0.69801      .   S
    C97    O188      0.72425      .   S
    C99    O188      0.72425      .   S
    C97    O189      0.69798      .   S
    C59    O189      0.69798      .   S
    C96    O190      0.72428      .   S
    C98    O190      0.72428      .   S
    C96    O191      0.69788      .   S
    C58    O191      0.69788      .   S
    C44    O192      0.70814      .   S
    C94    O192      0.70814  1_545   S
    C32    O193      0.70836      .   S
    C82    O193      0.70836      .   S
    C45    O194      0.70817      .   S
    C95    O194      0.70817      .   S
    C33    O195      0.70829      .   S
    C83    O195      0.70829      .   S
    C87    O196      0.70828  1_565   S
    C69    O196      0.70828      .   S
    C86    O197      0.70832      .   S
    C68    O197      0.70832      .   S
    C99    O198      0.70799      .   S
    C57    O198      0.70799      .   S
    C98    O199      0.70835      .   S
    C56    O199      0.70835      .   S
    C109   O200      0.58789      .   S
    C47    O200      0.58789      .   S
    C108   O201      0.58789      .   S
    C46    O201      0.58789      .   S
    C102   O202      0.58801      .   S
    C34    O202      0.58801      .   S
    C103   O203      0.58805      .   S
    C35    O203      0.58805      .   S
    C58    O204      0.58802      .   S
    C114   O204      0.58802      .   S
    C59    O205      0.58798      .   S
    C115   O205      0.58798      .   S
    C71    O206      0.58796      .   S
    C121   O206      0.58796      .   S
    C70    O207      0.58790      .   S
    C120   O207      0.58790      .   S
    C47    O208      0.69789      .   S
    C93    O208      0.69789      .   S
    C46    O209      0.69781      .   S
    C92    O209      0.69781  1_545   S
    C34    O210      0.69796      .   S
    C80    O210      0.69796      .   S
    C35    O211      0.69791      .   S
    C81    O211      0.69791      .   S
    C114   O212      1.17417      .   S
    C2     O212      1.17417      .   S
    C115   O213      1.17446      .   S
    C3     O213      1.17446      .   S
    C121   O214      1.17333      .   S
    C3     O214      1.17333      .   S
    C120   O215      1.17372      .   S
    C2     O215      1.17372      .   S
    C83    O216      0.72429      .   S
    C81    O216      0.72429      .   S
    C83    O217      0.70830      .   S
    C73    O217      0.70830      .   S
    C82    O218      0.72426      .   S
    C80    O218      0.72426      .   S
    C82    O219      0.70833      .   S
    C72    O219      0.70833      .   S
    C95    O220      0.72425      .   S
    C93    O220      0.72425      .   S
    C95    O221      0.70833  1_565   S
    C61    O221      0.70833      .   S
    C94    O222      0.72430      .   S
    C92    O222      0.72430      .   S
    C94    O223      0.70829      .   S
    C60    O223      0.70829      .   S
    C56    O224      0.68994  1_455   S
    C73    O224      0.68994      .   S
    C56    O225      0.54511      .   S
    C18    O225      0.54511      .   S
    C57    O226      0.69019      .   S
    C72    O226      0.69019      .   S
    C57    O227      0.54542      .   S
    C19    O227      0.54542      .   S
    C68    O228      0.69015      .   S
    C61    O228      0.69015      .   S
    C68    O229      0.54513      .   S
    C24    O229      0.54513      .   S
    C69    O230      0.68996      .   S
    C60    O230      0.68996  1_455   S
    C69    O231      0.54512      .   S
    C25    O231      0.54512      .   S
    C81    O232      0.69793      .   S
    C75    O232      0.69793      .   S
    C80    O233      0.69793      .   S
    C74    O233      0.69793      .   S
    C93    O234      0.69784  1_565   S
    C63    O234      0.69784      .   S
    C92    O235      0.69779      .   S
    C62    O235      0.69779      .   S
    C73    O236      0.54512      .   S
    C27    O236      0.54512      .   S
    C72    O237      0.54515      .   S
    C26    O237      0.54515      .   S
    C61    O238      0.54513      .   S
    C21    O238      0.54513      .   S
    C60    O239      0.54513      .   S
    C20    O239      0.54513      .   S
    C75    O240      0.58800      .   S
    C123   O240      0.58800      .   S
    C74    O241      0.58799      .   S
    C122   O241      0.58799      .   S
    C62    O242      0.58808      .   S
    C116   O242      0.58808      .   S
    C63    O243      0.58805      .   S
    C117   O243      0.58805      .   S
    C3     O244      1.17350      .   S
    C123   O244      1.17350      .   S
    C3     O245      1.17318      .   S
    C117   O245      1.17318      .   S
    C3     O246      1.17310      .   S
    C113   O246      1.17310      .   S
    C3     O247      1.17416      .   S
    C119   O247      1.17416      .   S
    C2     O248      1.17404      .   S
    C122   O248      1.17404      .   S
    C2     O249      1.17308      .   S
    C116   O249      1.17308      .   S
    C2     O250      1.17397      .   S
    C112   O250      1.17397      .   S
    C2     O251      1.17321      .   S
    C118   O251      1.17321      .   S
    C112   O252      0.58792      .   S
    C54    O252      0.58792      .   S
    C113   O253      0.58782      .   S
    C55    O253      0.58782      .   S
    C119   O254      0.58799      .   S
    C67    O254      0.58799      .   S
    C118   O255      0.58807      .   S
    C66    O255      0.58807      .   S
    C16    O256      0.54536      .   S
    C52    O256      0.54536      .   S
    C17    O257      0.54514      .   S
    C53    O257      0.54514      .   S
    C23    O258      0.54510      .   S
    C65    O258      0.54510      .   S
    C22    O259      0.54513      .   S
    C64    O259      0.54513      .   S
    C52    O260      0.68986      .   S
    C65    O260      0.68986  1_655   S
    C52    O261      0.70797      .   S
    C90    O261      0.70797      .   S
    C53    O262      0.69018      .   S
    C64    O262      0.69018      .   S
    C53    O263      0.70817      .   S
    C91    O263      0.70817      .   S
    C55    O264      0.69788      .   S
    C89    O264      0.69788      .   S
    C54    O265      0.69798      .   S
    C88    O265      0.69798      .   S
    C89    O266      0.72431      .   S
    C91    O266      0.72431      .   S
    C88    O267      0.72401      .   S
    C90    O267      0.72401      .   S
