# CIF file generated by openbabel 2.4.90, see http://openbabel.sf.net
data_I
_chemical_name_common 'VESTA_phase_1'
_cell_length_a 15.191
_cell_length_b 15.284
_cell_length_c 22.58
_cell_angle_alpha 107.064
_cell_angle_beta 106.784
_cell_angle_gamma 97.779
_space_group_name_H-M_alt 'P 1'
_space_group_name_Hall 'P 1'
loop_
    _symmetry_equiv_pos_as_xyz
    x,y,z
loop_
    _atom_site_label
    _atom_site_type_symbol
    _atom_site_fract_x
    _atom_site_fract_y
    _atom_site_fract_z
    _atom_site_occupancy
    Ga0     Ga   0.14461   0.14466   0.28974   1.000
    Ga1     Ga   0.14451   0.14474   0.78974   1.000
    Ga2     Ga   0.14441   0.64479   0.28976   1.000
    Ga3     Ga   0.14443   0.64480   0.78976   1.000
    Ga4     Ga   0.64440   0.14480   0.28976   1.000
    Ga5     Ga   0.64442   0.14480   0.78970   1.000
    Ga6     Ga   0.64460   0.64466   0.28973   1.000
    Ga7     Ga   0.64451   0.64472   0.78975   1.000
    Ga8     Ga   0.35528   0.35551   0.21022   1.000
    Ga9     Ga   0.35530   0.35551   0.71023   1.000
    Ga10    Ga   0.35548   0.85539   0.21020   1.000
    Ga11    Ga   0.35539   0.85544   0.71021   1.000
    Ga12    Ga   0.85548   0.35539   0.21021   1.000
    Ga13    Ga   0.85538   0.35546   0.71021   1.000
    Ga14    Ga   0.85527   0.85550   0.21022   1.000
    Ga15    Ga   0.85530   0.85551   0.71020   1.000
    Ga16    Ga   0.00000   0.25000   0.25002   1.000
    Ga17    Ga   0.00008   0.25036   0.75008   1.000
    Ga18    Ga   0.00018   0.75070   0.25014   1.000
    Ga19    Ga   0.00017   0.75067   0.75016   1.000
    Ga20    Ga   0.50018   0.25074   0.25014   1.000
    Ga21    Ga   0.50015   0.25066   0.75016   1.000
    Ga22    Ga   0.50002   0.75007   0.25003   1.000
    Ga23    Ga   0.50007   0.75032   0.75007   1.000
    Ga24    Ga   0.25033   0.00016   0.25000   1.000
    Ga25    Ga   0.24990   0.00007   0.74998   1.000
    Ga26    Ga   0.24940   0.49993   0.24982   1.000
    Ga27    Ga   0.24950   0.49997   0.74980   1.000
    Ga28    Ga   0.74939   0.99993   0.24982   1.000
    Ga29    Ga   0.74949   0.99998   0.74985   1.000
    Ga30    Ga   0.75033   0.50015   0.25008   1.000
    Ga31    Ga   0.74989   0.50006   0.74990   1.000
    H32     H    0.51571   0.16842   0.33575   1.000
    H33     H    0.51571   0.16833   0.83575   1.000
    H34     H    0.51577   0.66797   0.33560   1.000
    H35     H    0.51572   0.66812   0.83569   1.000
    H36     H    0.00000   0.16795   0.33567   1.000
    H37     H    0.00000   0.16814   0.83569   1.000
    H38     H    0.00000   0.66839   0.33574   1.000
    H39     H    0.00000   0.66835   0.83575   1.000
    H40     H    0.07421   0.46645   0.23076   1.000
    H41     H    0.07426   0.46651   0.73075   1.000
    H42     H    0.07480   0.96648   0.23081   1.000
    H43     H    0.07451   0.96651   0.73079   1.000
    H44     H    0.57478   0.46650   0.23081   1.000
    H45     H    0.57450   0.46651   0.73079   1.000
    H46     H    0.57420   0.96646   0.23075   1.000
    H47     H    0.57425   0.96649   0.73070   1.000
    H48     H    0.31929   0.16804   0.33587   1.000
    H49     H    0.31916   0.16791   0.83580   1.000
    H50     H    0.31900   0.66769   0.33570   1.000
    H51     H    0.31904   0.66775   0.83573   1.000
    H52     H    0.81898   0.16770   0.33571   1.000
    H53     H    0.81903   0.16776   0.83572   1.000
    H54     H    0.81929   0.66804   0.33587   1.000
    H55     H    0.81916   0.66789   0.83580   1.000
    H56     H    0.15633   0.26417   0.23087   1.000
    H57     H    0.15638   0.26422   0.73087   1.000
    H58     H    0.15650   0.76428   0.23090   1.000
    H59     H    0.15646   0.76429   0.73092   1.000
    H60     H    0.65650   0.26430   0.23094   1.000
    H61     H    0.65645   0.26429   0.73092   1.000
    H62     H    0.65634   0.76417   0.23086   1.000
    H63     H    0.65637   0.76421   0.73087   1.000
    H64     H    0.98430   0.33196   0.16430   1.000
    H65     H    0.98425   0.33214   0.66432   1.000
    H66     H    0.98422   0.83234   0.16430   1.000
    H67     H    0.98423   0.83230   0.66436   1.000
    H68     H    0.48421   0.33236   0.16434   1.000
    H69     H    0.48422   0.33229   0.66436   1.000
    H70     H    0.48430   0.83198   0.16430   1.000
    H71     H    0.48424   0.83212   0.66432   1.000
    H72     H    0.42556   0.03377   0.26917   1.000
    H73     H    0.42528   0.03376   0.76915   1.000
    H74     H    0.42497   0.53371   0.26910   1.000
    H75     H    0.42503   0.53374   0.76911   1.000
    H76     H    0.92497   0.03370   0.26911   1.000
    H77     H    0.92502   0.03375   0.76910   1.000
    H78     H    0.92557   0.53375   0.26917   1.000
    H79     H    0.92527   0.53376   0.76915   1.000
    H80     H    0.18059   0.33203   0.16405   1.000
    H81     H    0.18063   0.33209   0.66407   1.000
    H82     H    0.18090   0.83238   0.16422   1.000
    H83     H    0.18077   0.83223   0.66415   1.000
    H84     H    0.68090   0.33238   0.16422   1.000
    H85     H    0.68075   0.33224   0.66415   1.000
    H86     H    0.68059   0.83202   0.16405   1.000
    H87     H    0.68063   0.83208   0.66407   1.000
    H88     H    0.34373   0.23602   0.26910   1.000
    H89     H    0.34367   0.23600   0.76909   1.000
    H90     H    0.34356   0.73589   0.26903   1.000
    H91     H    0.34360   0.73593   0.76904   1.000
    H92     H    0.84354   0.23589   0.26904   1.000
    H93     H    0.84359   0.23594   0.76904   1.000
    H94     H    0.84372   0.73600   0.26910   1.000
    H95     H    0.84368   0.73601   0.76909   1.000
    H96     H    0.27293   0.16432   0.20000   1.000
    H97     H    0.27301   0.16431   0.50001   1.000
    H98     H    0.27281   0.66421   0.99994   1.000
    H99     H    0.27278   0.66417   0.49990   1.000
    H100    H    0.77281   0.16420   0.99994   1.000
    H101    H    0.77276   0.16420   0.49991   1.000
    H102    H    0.77291   0.66430   0.00000   1.000
    H103    H    0.77302   0.66432   0.50001   1.000
    H104    H    0.22716   0.33606   0.70000   1.000
    H105    H    0.22719   0.33607   0.50006   1.000
    H106    H    0.22739   0.83618   0.00010   1.000
    H107    H    0.22730   0.83616   0.50011   1.000
    H108    H    0.72737   0.33616   0.00010   1.000
    H109    H    0.72731   0.33618   0.50011   1.000
    H110    H    0.72713   0.83604   0.30000   1.000
    H111    H    0.72720   0.83608   0.50006   1.000
    C112    C    0.21100   0.03509   0.37667   1.000
    C113    C    0.21087   0.03510   0.87666   1.000
    C114    C    0.21065   0.53497   0.37658   1.000
    C115    C    0.21071   0.53503   0.87660   1.000
    C116    C    0.71064   0.03500   0.37658   1.000
    C117    C    0.71070   0.03502   0.87660   1.000
    C118    C    0.71101   0.53510   0.37667   1.000
    C119    C    0.71086   0.53508   0.87666   1.000
    C120    C    0.22641   0.01659   0.44010   1.000
    C121    C    0.22639   0.01661   0.94012   1.000
    C122    C    0.22616   0.51645   0.44002   1.000
    C123    C    0.22624   0.51651   0.94004   1.000
    C124    C    0.72616   0.01648   0.44000   1.000
    C125    C    0.72620   0.01649   0.94004   1.000
    C126    C    0.72643   0.51661   0.44012   1.000
    C127    C    0.72637   0.51659   0.94012   1.000
    C128    C    0.16501   0.34155   0.37674   1.000
    C129    C    0.16504   0.34166   0.87675   1.000
    C130    C    0.16513   0.84176   0.37682   1.000
    C131    C    0.16513   0.84178   0.87682   1.000
    C132    C    0.66513   0.34179   0.37682   1.000
    C133    C    0.66511   0.34176   0.87682   1.000
    C134    C    0.66502   0.84157   0.37670   1.000
    C135    C    0.66502   0.84163   0.87670   1.000
    C136    C    0.21328   0.42368   0.44000   1.000
    C137    C    0.21329   0.42374   0.94007   1.000
    C138    C    0.21347   0.92381   0.44014   1.000
    C139    C    0.21345   0.92384   0.94015   1.000
    C140    C    0.71347   0.42384   0.44010   1.000
    C141    C    0.71343   0.42382   0.94015   1.000
    C142    C    0.71328   0.92369   0.44006   1.000
    C143    C    0.71329   0.92371   0.94000   1.000
    C144    C    0.28901   0.46520   0.12333   1.000
    C145    C    0.28907   0.46522   0.62335   1.000
    C146    C    0.28938   0.96530   0.12342   1.000
    C147    C    0.28924   0.96528   0.62341   1.000
    C148    C    0.78937   0.46529   0.12342   1.000
    C149    C    0.78923   0.46530   0.62341   1.000
    C150    C    0.78900   0.96518   0.12333   1.000
    C151    C    0.78906   0.96523   0.62335   1.000
    C152    C    0.27371   0.48378   0.05992   1.000
    C153    C    0.27377   0.48379   0.55994   1.000
    C154    C    0.27397   0.98389   0.06001   1.000
    C155    C    0.27393   0.98388   0.56001   1.000
    C156    C    0.77395   0.48388   0.06001   1.000
    C157    C    0.77392   0.48391   0.56000   1.000
    C158    C    0.77371   0.98375   0.05992   1.000
    C159    C    0.77376   0.98380   0.55994   1.000
    C160    C    0.33506   0.15880   0.12332   1.000
    C161    C    0.33505   0.15879   0.62332   1.000
    C162    C    0.33495   0.65861   0.12324   1.000
    C163    C    0.33497   0.65867   0.62324   1.000
    C164    C    0.83494   0.15859   0.12323   1.000
    C165    C    0.83496   0.15869   0.62324   1.000
    C166    C    0.83505   0.65878   0.12331   1.000
    C167    C    0.83505   0.65880   0.62332   1.000
    C168    C    0.28689   0.07668   0.05999   1.000
    C169    C    0.28685   0.07667   0.55999   1.000
    C170    C    0.28671   0.57655   0.05990   1.000
    C171    C    0.28671   0.57656   0.55991   1.000
    C172    C    0.78668   0.07653   0.05990   1.000
    C173    C    0.78670   0.07658   0.55991   1.000
    C174    C    0.78687   0.57665   0.05999   1.000
    C175    C    0.78686   0.57668   0.56000   1.000
    C176    C    0.26214   0.09239   0.40000   1.000
    C177    C    0.26219   0.09238   0.50003   1.000
    C178    C    0.26198   0.59228   0.99995   1.000
    C179    C    0.26198   0.59224   0.49994   1.000
    C180    C    0.76198   0.09227   0.99995   1.000
    C181    C    0.76196   0.09227   0.49995   1.000
    C182    C    0.76212   0.59236   0.20000   1.000
    C183    C    0.76219   0.59239   0.50004   1.000
    C184    C    0.23800   0.40800   0.00000   1.000
    C185    C    0.23800   0.40799   0.50002   1.000
    C186    C    0.23821   0.90811   0.00000   1.000
    C187    C    0.23815   0.90809   0.50009   1.000
    C188    C    0.73819   0.40810   0.90000   1.000
    C189    C    0.73816   0.40812   0.50009   1.000
    C190    C    0.73797   0.90797   0.00000   1.000
    C191    C    0.73801   0.90801   0.50002   1.000
    O192    O    0.01124   0.14562   0.28948   1.000
    O193    O    0.01121   0.14585   0.78950   1.000
    O194    O    0.01121   0.64611   0.28956   1.000
    O195    O    0.01121   0.64608   0.78957   1.000
    O196    O    0.51120   0.14614   0.28957   1.000
    O197    O    0.51120   0.14607   0.78956   1.000
    O198    O    0.51124   0.64565   0.28948   1.000
    O199    O    0.51120   0.64583   0.78950   1.000
    O200    O    0.12032   0.01619   0.22744   1.000
    O201    O    0.12002   0.01622   0.72740   1.000
    O202    O    0.11963   0.51620   0.22734   1.000
    O203    O    0.11973   0.51623   0.72735   1.000
    O204    O    0.61963   0.01622   0.22734   1.000
    O205    O    0.61971   0.01623   0.72735   1.000
    O206    O    0.62032   0.51619   0.22744   1.000
    O207    O    0.62001   0.51620   0.72740   1.000
    O208    O    0.16635   0.09787   0.36864   1.000
    O209    O    0.16629   0.09795   0.86867   1.000
    O210    O    0.16614   0.59789   0.36860   1.000
    O211    O    0.16620   0.59795   0.86865   1.000
    O212    O    0.66614   0.09792   0.36864   1.000
    O213    O    0.66618   0.09793   0.86865   1.000
    O214    O    0.66636   0.59789   0.36864   1.000
    O215    O    0.66628   0.59793   0.86867   1.000
    O216    O    0.24817   0.48859   0.33784   1.000
    O217    O    0.24825   0.48865   0.83788   1.000
    O218    O    0.24873   0.98879   0.33804   1.000
    O219    O    0.24850   0.98874   0.83798   1.000
    O220    O    0.74873   0.48881   0.33805   1.000
    O221    O    0.74848   0.48874   0.83798   1.000
    O222    O    0.74817   0.98859   0.33785   1.000
    O223    O    0.74825   0.98863   0.83787   1.000
    O224    O    0.27791   0.14401   0.28967   1.000
    O225    O    0.27774   0.14396   0.78962   1.000
    O226    O    0.27752   0.64385   0.28950   1.000
    O227    O    0.27757   0.64389   0.78950   1.000
    O228    O    0.77751   0.14386   0.28954   1.000
    O229    O    0.77756   0.14390   0.78955   1.000
    O230    O    0.77791   0.64400   0.28967   1.000
    O231    O    0.77773   0.64395   0.78962   1.000
    O232    O    0.10741   0.21116   0.22751   1.000
    O233    O    0.10740   0.21128   0.72753   1.000
    O234    O    0.10743   0.71141   0.22757   1.000
    O235    O    0.10741   0.71141   0.72757   1.000
    O236    O    0.60742   0.21143   0.22757   1.000
    O237    O    0.60740   0.21141   0.72757   1.000
    O238    O    0.60741   0.71118   0.22751   1.000
    O239    O    0.60739   0.71126   0.72752   1.000
    O240    O    0.20134   0.27050   0.36872   1.000
    O241    O    0.20127   0.27055   0.86872   1.000
    O242    O    0.20124   0.77058   0.36870   1.000
    O243    O    0.20126   0.77061   0.86877   1.000
    O244    O    0.70124   0.27061   0.36877   1.000
    O245    O    0.70124   0.27060   0.86878   1.000
    O246    O    0.70133   0.77051   0.36872   1.000
    O247    O    0.70127   0.77054   0.86872   1.000
    O248    O    0.08893   0.34931   0.33813   1.000
    O249    O    0.08898   0.34953   0.83815   1.000
    O250    O    0.08917   0.84979   0.33820   1.000
    O251    O    0.08913   0.84976   0.83823   1.000
    O252    O    0.58917   0.34982   0.33820   1.000
    O253    O    0.58910   0.34974   0.83823   1.000
    O254    O    0.58893   0.84935   0.33814   1.000
    O255    O    0.58897   0.84950   0.83810   1.000
    O256    O    0.48874   0.35481   0.21053   1.000
    O257    O    0.48875   0.35475   0.71054   1.000
    O258    O    0.48881   0.85439   0.21040   1.000
    O259    O    0.48876   0.85455   0.71050   1.000
    O260    O    0.98879   0.35435   0.21048   1.000
    O261    O    0.98876   0.35457   0.71050   1.000
    O262    O    0.98874   0.85479   0.21053   1.000
    O263    O    0.98874   0.85476   0.71054   1.000
    O264    O    0.37949   0.48401   0.27200   1.000
    O265    O    0.37958   0.48402   0.77250   1.000
    O266    O    0.38019   0.98399   0.27260   1.000
    O267    O    0.37988   0.98400   0.77257   1.000
    O268    O    0.88018   0.48399   0.27260   1.000
    O269    O    0.87987   0.48401   0.77257   1.000
    O270    O    0.87948   0.98399   0.27250   1.000
    O271    O    0.87957   0.98402   0.77251   1.000
    O272    O    0.33364   0.40241   0.13137   1.000
    O273    O    0.33370   0.40242   0.63138   1.000
    O274    O    0.33388   0.90237   0.13137   1.000
    O275    O    0.33380   0.90241   0.63100   1.000
    O276    O    0.83386   0.40236   0.13137   1.000
    O277    O    0.83379   0.40243   0.63140   1.000
    O278    O    0.83364   0.90239   0.13137   1.000
    O279    O    0.83369   0.90243   0.63138   1.000
    O280    O    0.25171   0.01159   0.16209   1.000
    O281    O    0.25149   0.01154   0.66204   1.000
    O282    O    0.25113   0.51138   0.16189   1.000
    O283    O    0.25124   0.51143   0.66193   1.000
    O284    O    0.75113   0.01138   0.16189   1.000
    O285    O    0.75122   0.01144   0.66193   1.000
    O286    O    0.75171   0.51158   0.16209   1.000
    O287    O    0.75149   0.51154   0.66204   1.000
    O288    O    0.22194   0.35613   0.21026   1.000
    O289    O    0.22199   0.35617   0.71027   1.000
    O290    O    0.22235   0.85628   0.21000   1.000
    O291    O    0.22218   0.85622   0.71034   1.000
    O292    O    0.72235   0.35628   0.21040   1.000
    O293    O    0.72216   0.35623   0.71034   1.000
    O294    O    0.72194   0.85612   0.21026   1.000
    O295    O    0.72199   0.85616   0.71027   1.000
    O296    O    0.39256   0.28915   0.27252   1.000
    O297    O    0.39254   0.28912   0.77250   1.000
    O298    O    0.39255   0.78889   0.27240   1.000
    O299    O    0.39253   0.78897   0.77248   1.000
    O300    O    0.89254   0.28888   0.27240   1.000
    O301    O    0.89252   0.28899   0.77248   1.000
    O302    O    0.89256   0.78913   0.27252   1.000
    O303    O    0.89254   0.78912   0.77253   1.000
    O304    O    0.29863   0.22981   0.13128   1.000
    O305    O    0.29863   0.22980   0.63129   1.000
    O306    O    0.29871   0.72973   0.13123   1.000
    O307    O    0.29865   0.72974   0.63123   1.000
    O308    O    0.79870   0.22971   0.13123   1.000
    O309    O    0.79864   0.22977   0.63123   1.000
    O310    O    0.79862   0.72979   0.13128   1.000
    O311    O    0.79863   0.72981   0.63129   1.000
    O312    O    0.41115   0.15117   0.16197   1.000
    O313    O    0.41110   0.15112   0.66199   1.000
    O314    O    0.41096   0.65078   0.16188   1.000
    O315    O    0.41099   0.65091   0.66190   1.000
    O316    O    0.91093   0.15074   0.16188   1.000
    O317    O    0.91099   0.15094   0.66190   1.000
    O318    O    0.91114   0.65114   0.16197   1.000
    O319    O    0.91110   0.65113   0.66200   1.000
loop_
    _geom_bond_atom_site_label_1
    _geom_bond_atom_site_label_2
    _geom_bond_distance
    _geom_bond_site_symmetry_2
    _ccdc_geom_bond_type
    H106   C186      1.09022      .   S
    C170   C152      1.40497      .   S
    C170   C162      1.49962      .   S
    C170   C178      1.39755  1_554   S
    C172   C158      1.40518  1_545   S
    C172   C164      1.49950      .   S
    C172   C180      1.39756  1_554   S
    C158   C150      1.49961      .   S
    C158   C190      1.39737      .   S
    C152   C144      1.49963      .   S
    C152   C184      1.39737      .   S
    C174   C156      1.40504      .   S
    C174   C166      1.49973      .   S
    C168   C154      1.40525  1_545   S
    C168   C160      1.49984      .   S
    C154   C146      1.49965      .   S
    C154   C186      1.39866      .   S
    C156   C148      1.49963      .   S
    C164   O308      1.27335      .   S
    C164   O316      1.27513      .   S
    C162   O306      1.27336      .   S
    C162   O314      1.27501      .   S
    C166   O310      1.27354      .   S
    C166   O318      1.27491      .   S
    C160   O304      1.27353      .   S
    C160   O312      1.27478      .   S
    C144   O272      1.27325      .   S
    C144   O282      1.27510      .   S
    C150   O278      1.27325      .   S
    C150   O284      1.27522  1_565   S
    C146   O274      1.27330      .   S
    C146   O280      1.27518  1_565   S
    C148   O276      1.27331      .   S
    C148   O286      1.27498      .   S
    O286   C182      1.23739      .   S
    H80    O288      0.97586      .   S
    H86    O294      0.97585      .   S
    H84    O292      0.97583      .   S
    H82    O290      0.96887      .   S
    H66    O262      0.97679      .   S
    H64    O260      0.97585      .   S
    H70    O258      0.97408      .   S
    H68    O256      0.97588      .   S
    O290   Ga10      2.02298      .   S
    Ga12   O292      2.02555      .   S
    Ga8    O256      2.02698      .   S
    Ga8    O264      1.95920      .   S
    Ga14   O262      2.02696      .   S
    O294   Ga28      2.04640      .   S
    O288   Ga26      2.04616      .   S
    O204   H46       0.99173  1_545   S
    O204   Ga28      1.95811  1_545   S
    O202   H40       0.99169      .   S
    O202   Ga26      1.95808      .   S
    O206   H44       0.99153      .   S
    O206   Ga30      1.96046      .   S
    O200   H42       0.99159  1_545   S
    O200   Ga24      1.96039      .   S
    O232   H56       0.99136      .   S
    O232   Ga16      1.95888      .   S
    O238   H62       0.99138      .   S
    O238   Ga22      1.95893      .   S
    O234   H58       0.99160      .   S
    O234   Ga18      1.95949      .   S
    O236   H60       0.99125      .   S
    O236   Ga20      1.95948      .   S
    Ga28   O270      1.96123      .   S
    Ga24   O266      1.95894  1_545   S
    Ga24   O224      2.04685      .   S
    Ga16   O300      1.95860  1_455   S
    Ga22   O298      1.95835      .   S
    Ga30   O268      1.95875      .   S
    Ga30   O230      2.04680      .   S
    Ga20   O296      1.95835      .   S
    Ga18   O302      1.95853  1_455   S
    H90    O298      0.99180      .   S
    H92    O300      0.99181      .   S
    H74    O264      0.98586      .   S
    H94    O302      0.99133      .   S
    H88    O296      0.99134      .   S
    H76    O270      0.99155  1_545   S
    H78    O268      0.99155      .   S
    H72    O266      0.99163  1_545   S
    O198   Ga6       2.02636      .   S
    O198   H34       0.97435      .   S
    O192   Ga0       2.02640      .   S
    O192   H36       1.06918      .   S
    O226   H50       0.97631      .   S
    O228   H52       0.97577      .   S
    O194   Ga2       2.02508      .   S
    O194   H38       1.06869      .   S
    O196   Ga4       2.02510      .   S
    O196   H32       0.97569      .   S
    O230   H54       0.97580      .   S
    O224   H48       0.97582      .   S
    O216   C114      1.27514      .   S
    O222   C116      1.27518  1_565   S
    O218   C112      1.27531  1_565   S
    O220   C118      1.27501      .   S
    O248   C128      1.27513      .   S
    O254   C134      1.27472      .   S
    O250   C130      1.27542      .   S
    O252   C132      1.27546      .   S
    O210   C114      1.27349      .   S
    O212   C116      1.27329      .   S
    O214   C118      1.27323      .   S
    O208   C112      1.27324      .   S
    O242   C130      1.27313      .   S
    O246   C134      1.27320      .   S
    O240   C128      1.27326      .   S
    O244   C132      1.27310      .   S
    C116   C124      1.49916      .   S
    C114   C122      1.49963      .   S
    C118   C126      1.49974      .   S
    C112   C120      1.49933      .   S
    C112   C176      0.97806      .   S
    C134   C142      1.50036      .   S
    C128   C136      1.49914      .   S
    C130   C138      1.49940      .   S
    C132   C140      1.49888      .   S
    C124   C142      1.40549  1_545   S
    C124   C181      1.39792      .   S
    C136   C122      1.40466      .   S
    C136   C185      1.39868      .   S
    C122   C179      1.39752      .   S
    C142   C191      1.39743      .   S
    C140   C126      1.40463      .   S
    C140   C189      1.39833      .   S
    C120   C138      1.40528  1_545   S
    C120   C177      1.39757      .   S
    C126   C183      1.39742      .   S
    C138   C187      1.39746      .   S
    H99    C179      1.08960      .   S
    H101   C181      1.08961      .   S
    C179   C171      1.39761      .   S
    C181   C173      1.39743      .   S
    H97    C177      1.08954      .   S
    H103   C183      1.08963      .   S
    C191   H111      1.08962      .   S
    C191   C159      1.39752      .   S
    C185   H105      1.08960      .   S
    C185   C153      1.39754      .   S
    C177   C169      1.39759      .   S
    C183   C175      1.39761      .   S
    C189   H109      1.08959      .   S
    C189   C157      1.39730      .   S
    C187   H107      1.08959      .   S
    C187   C155      1.39745      .   S
    C173   C159      1.40525  1_545   S
    C173   C165      1.49983      .   S
    C171   C153      1.40504      .   S
    C171   C163      1.49985      .   S
    C159   C151      1.49964      .   S
    C153   C145      1.49959      .   S
    C169   C155      1.40525  1_545   S
    C169   C161      1.49984      .   S
    C157   C175      1.40489      .   S
    C157   C149      1.49987      .   S
    C175   C167      1.49969      .   S
    C155   C147      1.49963      .   S
    C165   O309      1.27347      .   S
    C165   O317      1.27497      .   S
    C163   O307      1.27346      .   S
    C163   O315      1.27498      .   S
    C167   O311      1.27353      .   S
    C167   O319      1.27488      .   S
    C161   O305      1.27353      .   S
    C161   O313      1.27481      .   S
    C151   O279      1.27324      .   S
    C151   O285      1.27528  1_565   S
    C145   O273      1.27324      .   S
    C145   O283      1.27507      .   S
    C149   O277      1.27331      .   S
    C149   O287      1.27508      .   S
    C147   O275      1.27144      .   S
    C147   O281      1.27521  1_565   S
    H87    O295      0.97572      .   S
    H81    O289      0.97572      .   S
    H85    O293      0.97579      .   S
    H83    O291      0.97579      .   S
    H71    O259      0.97570      .   S
    H65    O261      0.97577      .   S
    H69    O257      0.97571      .   S
    H67    O263      0.97578      .   S
    Ga15   O263      2.02659      .   S
    Ga11   O259      2.02608      .   S
    Ga13   O261      2.02614      .   S
    Ga9    H104      1.86401      .   S
    O295   Ga29      2.04639      .   S
    O289   Ga27      2.04613      .   S
    O293   Ga31      2.04635      .   S
    O291   Ga25      2.04674  1_565   S
    O257   Ga21      2.04504      .   S
    O203   H41       0.99166      .   S
    O203   Ga27      1.95824      .   S
    O205   H47       0.99115  1_545   S
    O205   Ga29      1.95821  1_545   S
    O207   H45       0.99162      .   S
    O207   Ga31      1.95919      .   S
    O201   H43       0.99173  1_545   S
    O201   Ga25      1.95923      .   S
    O239   H63       0.99132      .   S
    O239   Ga23      1.95915      .   S
    O233   H57       0.99138      .   S
    O233   Ga17      1.95911      .   S
    O235   H59       0.99127      .   S
    O235   Ga19      1.95941      .   S
    O237   H61       0.99127      .   S
    O237   Ga21      1.95943      .   S
    Ga27   O265      1.96095      .   S
    Ga29   O271      1.96113      .   S
    Ga31   O269      1.95999      .   S
    Ga25   O267      1.96015  1_545   S
    Ga23   O299      1.95877      .   S
    Ga17   O301      1.95892  1_455   S
    Ga19   O303      1.95870  1_455   S
    Ga21   O297      1.95822      .   S
    H93    O301      0.99131      .   S
    H91    O299      0.99126      .   S
    H95    O303      0.99131      .   S
    H89    O297      0.99155      .   S
    H77    O271      0.99157  1_545   S
    H75    O265      0.99130      .   S
    H79    O269      0.99154      .   S
    H73    O267      0.99162  1_545   S
    O193   Ga1       2.02584      .   S
    O193   H37       1.06892      .   S
    O227   H51       0.97678      .   S
    O199   Ga7       2.02583      .   S
    O199   H35       0.97592      .   S
    O229   Ga5       2.02532      .   S
    O229   H53       0.97575      .   S
    O197   H33       0.97589      .   S
    O195   Ga3       2.02530      .   S
    O195   H39       1.06871      .   S
    O225   H49       0.97567      .   S
    O231   H55       0.97568      .   S
    O223   C117      1.27537  1_565   S
    O217   C115      1.27508      .   S
    O219   C113      1.27534  1_565   S
    O221   C119      1.27516      .   S
    O255   C135      1.27526      .   S
    O249   C129      1.27536      .   S
    O253   C133      1.27538      .   S
    O251   C131      1.27540      .   S
    O211   C115      1.27333      .   S
    O213   C117      1.27332      .   S
    O209   C113      1.27324      .   S
    O215   C119      1.27326      .   S
    O247   C135      1.27313      .   S
    O241   C129      1.27312      .   S
    O243   C131      1.27308      .   S
    O245   C133      1.27310      .   S
    C115   C123      1.49956      .   S
    C117   C125      1.49961      .   S
    C113   C121      1.49975      .   S
    C119   C127      1.49978      .   S
    C135   C143      1.49927      .   S
    C129   C137      1.49950      .   S
    C133   C188      1.25804      .   S
    C131   C139      1.49956      .   S
    C143   C125      1.40473  1_565   S
    C143   C190      1.39866  1_556   S
    C123   C137      1.40504      .   S
    C123   C178      1.39720      .   S
    C125   C180      1.39719      .   S
    C137   C184      1.39716  1_556   S
    C127   C141      1.40499      .   S
    C121   C139      1.40522  1_545   S
    C141   C188      1.05580      .   S
    C139   C186      1.39539  1_556   S
    H100   C180      1.08956      .   S
    H98    C178      1.08954      .   S
    O192   Ga16      2.04651      .   S
    O193   Ga17      2.04763      .   S
    O194   Ga18      2.04873      .   S
    O195   Ga19      2.04861      .   S
    O196   Ga20      2.04890      .   S
    O197   Ga5       2.02568      .   S
    O197   Ga21      2.04844      .   S
    O198   Ga22      2.04684      .   S
    O199   Ga23      2.04754      .   S
    O200   Ga0       1.96312      .   S
    O201   Ga1       1.96347      .   S
    O202   Ga2       1.96431      .   S
    O203   Ga3       1.96409      .   S
    O204   Ga4       1.96429      .   S
    O205   Ga5       1.96358      .   S
    O206   Ga6       1.96307      .   S
    O207   Ga7       1.96353      .   S
    O208   Ga0       2.06549      .   S
    O208   C176      1.44857      .   S
    O209   Ga1       2.06604      .   S
    O210   Ga2       2.06525      .   S
    O211   Ga3       2.06585      .   S
    O212   Ga4       2.06598      .   S
    O213   Ga5       2.06722      .   S
    O214   Ga6       2.06557      .   S
    O215   Ga7       2.06591      .   S
    O216   Ga26      2.05017      .   S
    O217   Ga27      2.05151      .   S
    O218   Ga24      2.05236  1_565   S
    O218   C176      1.71880  1_565   S
    O219   Ga25      2.05036  1_565   S
    O220   Ga30      2.05064      .   S
    O221   Ga31      2.05218      .   S
    O222   Ga28      2.05040      .   S
    O223   Ga29      2.05025      .   S
    O224   Ga0       2.02685      .   S
    O225   Ga1       2.02626      .   S
    O225   Ga25      2.04718      .   S
    O226   Ga2       2.02568      .   S
    O226   Ga26      2.04742      .   S
    O227   Ga3       2.02609      .   S
    O227   Ga27      2.04748      .   S
    O228   Ga4       2.02549      .   S
    O228   Ga28      2.04750  1_545   S
    O229   Ga29      2.04745  1_545   S
    O230   Ga6       2.02686      .   S
    O231   Ga7       2.02626      .   S
    O231   Ga31      2.04726      .   S
    O232   Ga0       1.96510      .   S
    O233   Ga1       1.96517      .   S
    O234   Ga2       1.96544      .   S
    O235   Ga3       1.96542      .   S
    O236   Ga4       1.96548      .   S
    O237   Ga5       1.96431      .   S
    O238   Ga6       1.96510      .   S
    O239   Ga7       1.96543      .   S
    O240   Ga0       2.06706      .   S
    O241   Ga1       2.06695      .   S
    O242   Ga2       2.06631      .   S
    O243   Ga3       2.06722      .   S
    O244   Ga4       2.06714      .   S
    O245   Ga5       2.06787      .   S
    O246   Ga6       2.06728      .   S
    O247   Ga7       2.06678      .   S
    O248   Ga16      2.05122      .   S
    O249   Ga17      2.04979      .   S
    O250   Ga18      2.04959      .   S
    O251   Ga19      2.04958      .   S
    O252   Ga20      2.04962      .   S
    O253   Ga21      2.04956      .   S
    O254   Ga22      2.05099      .   S
    O255   Ga23      2.04939      .   S
    O256   Ga20      2.04460      .   S
    O257   Ga9       2.02676      .   S
    O258   Ga10      2.02617      .   S
    O258   Ga22      2.04813      .   S
    O259   Ga23      2.04609      .   S
    O260   Ga12      2.02561      .   S
    O260   Ga16      2.04728  1_655   S
    O261   Ga17      2.04604  1_655   S
    O262   Ga18      2.04474  1_655   S
    O263   Ga19      2.04494  1_655   S
    O264   Ga26      1.96102      .   S
    O265   Ga9       1.96334      .   S
    O266   Ga10      1.96446      .   S
    O267   Ga11      1.96412      .   S
    O268   Ga12      1.96442      .   S
    O269   Ga13      1.96410      .   S
    O270   Ga14      1.96329      .   S
    O271   Ga15      1.96369      .   S
    O272   Ga8       2.06553      .   S
    O273   Ga9       2.06572      .   S
    O274   Ga10      2.06598      .   S
    O275   Ga11      2.07373      .   S
    O276   Ga12      2.06608      .   S
    O277   Ga13      2.06550      .   S
    O278   Ga14      2.06549      .   S
    O279   Ga15      2.06517      .   S
    O280   Ga24      2.04887      .   S
    O281   Ga25      2.05063      .   S
    O282   Ga26      2.05095      .   S
    O283   Ga27      2.04960      .   S
    O284   Ga28      2.05090  1_545   S
    O285   Ga29      2.05078  1_545   S
    O286   Ga30      2.05060      .   S
    O287   Ga31      2.04889      .   S
    O288   Ga8       2.02701      .   S
    O289   Ga9       2.02673      .   S
    O290   Ga24      2.04747  1_565   S
    O291   Ga11      2.02618      .   S
    O292   Ga30      2.04685      .   S
    O293   Ga13      2.02617      .   S
    O294   Ga14      2.02705      .   S
    O295   Ga15      2.02691      .   S
    O296   Ga8       1.96506      .   S
    O297   Ga9       1.96468      .   S
    O298   Ga10      1.96432      .   S
    O299   Ga11      1.96536      .   S
    O300   Ga12      1.96425      .   S
    O301   Ga13      1.96531      .   S
    O302   Ga14      1.96513      .   S
    O303   Ga15      1.96568      .   S
    O304   Ga8       2.06537      .   S
    O305   Ga9       2.06538      .   S
    O306   Ga10      2.06536      .   S
    O307   Ga11      2.06579      .   S
    O308   Ga12      2.06561      .   S
    O309   Ga13      2.06570      .   S
    O310   Ga14      2.06545      .   S
    O311   Ga15      2.06498      .   S
    O312   Ga20      2.05383      .   S
    O313   Ga21      2.05378      .   S
    O314   Ga22      2.05218      .   S
    O315   Ga23      2.05315      .   S
    O316   Ga16      2.05191  1_655   S
    O317   Ga17      2.05342  1_655   S
    O318   Ga18      2.05384  1_655   S
    O319   Ga19      2.05376  1_655   S
