# CIF file generated by openbabel 2.4.90, see http://openbabel.sf.net
data_I
_chemical_name_common ''
_cell_length_a 18.402
_cell_length_b 18.418
_cell_length_c 18.412
_cell_angle_alpha 60.334
_cell_angle_beta 60.264
_cell_angle_gamma 60.268
_space_group_name_H-M_alt 'P 1'
_space_group_name_Hall 'P 1'
loop_
    _symmetry_equiv_pos_as_xyz
    x,y,z
loop_
    _atom_site_label
    _atom_site_type_symbol
    _atom_site_fract_x
    _atom_site_fract_y
    _atom_site_fract_z
    _atom_site_occupancy
    N0      N    0.00000   0.50000   0.50000   1.000
    N1      N    0.50000   0.50000   0.50001   1.000
    N2      N    0.00000   1.00000   0.99996   1.000
    N3      N    0.50000   1.00000   0.00000   1.000
    N4      N    0.00000   0.50000   0.00000   1.000
    N5      N    0.50000   1.00000   0.50000   1.000
    Zr6     Zr   0.75002   0.75006   0.25004   1.000
    O7      O    0.64561   0.85435   0.14557   1.000
    O8      O    0.85434   0.64566   0.14556   1.000
    O9      O    0.64564   0.85446   0.35445   1.000
    O10     O    0.64555   0.64562   0.35439   1.000
    O11     O    0.85447   0.64568   0.35443   1.000
    O12     O    0.85447   0.85445   0.14577   1.000
    Zr13    Zr   0.24999   0.24994   0.74996   1.000
    O14     O    0.14553   0.35431   0.64557   1.000
    O15     O    0.35445   0.35437   0.64562   1.000
    O16     O    0.14566   0.35433   0.85445   1.000
    O17     O    0.35440   0.14564   0.85443   1.000
    O18     O    0.14554   0.14554   0.85422   1.000
    O19     O    0.35436   0.14553   0.64556   1.000
loop_
    _geom_bond_atom_site_label_1
    _geom_bond_atom_site_label_2
    _geom_bond_distance
    _geom_bond_site_symmetry_2
    _ccdc_geom_bond_type
    Zr6    O7        2.72574      .   S
    N3     O7        3.79951      .   S
    Zr6    O8        2.72397      .   S
    N4     O8        3.79775  1_455   S
    Zr6    O9        2.72299      .   S
    N5     O9        3.79613      .   S
    Zr6    O10       2.72618      .   S
    N1     O10       3.79997      .   S
    Zr6    O11       2.72522      .   S
    N0     O11       3.79856  1_455   S
    Zr6    O12       2.72545      .   S
    N2     O12       3.79874  1_456   S
    Zr13   O14       2.72520      .   S
    N0     O14       3.79855      .   S
    Zr13   O15       2.72618      .   S
    N1     O15       3.79997      .   S
    Zr13   O16       2.72399      .   S
    N4     O16       3.79776  1_554   S
    Zr13   O17       2.72576      .   S
    N3     O17       3.79950  1_564   S
    Zr13   O18       2.72545      .   S
    N2     O18       3.79873  1_565   S
    Zr13   O19       2.72296      .   S
    N5     O19       3.79610  1_565   S
