# CIF file generated by openbabel 2.4.90, see http://openbabel.sf.net
data_I
_chemical_name_common ''
_cell_length_a 13.804
_cell_length_b 13.84
_cell_length_c 13.922
_cell_angle_alpha 108.749
_cell_angle_beta 89.966
_cell_angle_gamma 90.155
_space_group_name_H-M_alt 'P 1'
_space_group_name_Hall 'P 1'
loop_
    _symmetry_equiv_pos_as_xyz
    x,y,z
loop_
    _atom_site_label
    _atom_site_type_symbol
    _atom_site_fract_x
    _atom_site_fract_y
    _atom_site_fract_z
    _atom_site_occupancy
    H0      H    0.88395   0.58368   0.15590   1.000
    H1      H    0.01461   0.29469   0.15535   1.000
    H2      H    0.95509   0.47328   0.22140   1.000
    H3      H    0.66812   0.35832   0.12075   1.000
    H4      H    0.74184   0.18266   0.05379   1.000
    H5      H    0.38590   0.41578   0.34402   1.000
    H6      H    0.51514   0.70685   0.34551   1.000
    H7      H    0.45638   0.52760   0.28035   1.000
    H8      H    0.16912   0.64005   0.38082   1.000
    H9      H    0.24222   0.81661   0.44689   1.000
    H10     H    0.11602   0.41636   0.84402   1.000
    H11     H    0.98536   0.70535   0.84463   1.000
    H12     H    0.04488   0.52676   0.77858   1.000
    H13     H    0.33185   0.64172   0.87922   1.000
    H14     H    0.25813   0.81738   0.94617   1.000
    H15     H    0.61407   0.58427   0.65594   1.000
    H16     H    0.48482   0.29319   0.65440   1.000
    H17     H    0.54357   0.47244   0.71960   1.000
    H18     H    0.83084   0.36001   0.61917   1.000
    H19     H    0.75775   0.18344   0.55308   1.000
    C20     C    0.76192   0.53560   0.20933   1.000
    C21     C    0.93887   0.31274   0.14745   1.000
    C22     C    0.90446   0.41226   0.18370   1.000
    C23     C    0.80585   0.43053   0.17324   1.000
    C24     C    0.74539   0.34680   0.12827   1.000
    C25     C    0.78543   0.24980   0.09213   1.000
    C26     C    0.26299   0.46394   0.29279   1.000
    C27     C    0.43954   0.68805   0.35349   1.000
    C28     C    0.40551   0.58817   0.31779   1.000
    C29     C    0.30700   0.56916   0.32840   1.000
    C30     C    0.24629   0.65238   0.37320   1.000
    C31     C    0.28595   0.74978   0.40877   1.000
    C32     C    0.23805   0.46444   0.79065   1.000
    C33     C    0.06110   0.68731   0.85253   1.000
    C34     C    0.09550   0.58778   0.81627   1.000
    C35     C    0.19411   0.56951   0.82673   1.000
    C36     C    0.25458   0.65324   0.87170   1.000
    C37     C    0.21454   0.75024   0.90780   1.000
    C38     C    0.73696   0.53611   0.70723   1.000
    C39     C    0.56043   0.31200   0.64649   1.000
    C40     C    0.59445   0.41188   0.68210   1.000
    C41     C    0.69297   0.43088   0.67150   1.000
    C42     C    0.75367   0.34766   0.62678   1.000
    C43     C    0.71401   0.25027   0.59121   1.000
    N44     N    0.82226   0.60955   0.19608   1.000
    N45     N    0.88072   0.23291   0.10126   1.000
    N46     N    0.32368   0.38998   0.30469   1.000
    N47     N    0.38114   0.76740   0.39930   1.000
    N48     N    0.17770   0.39048   0.80387   1.000
    N49     N    0.11925   0.76714   0.89871   1.000
    N50     N    0.67628   0.61007   0.69520   1.000
    N51     N    0.61882   0.23265   0.60061   1.000
    O52     O    0.67950   0.55029   0.24550   1.000
    O53     O    0.18000   0.44918   0.25000   1.000
    O54     O    0.32046   0.44974   0.75446   1.000
    O55     O    0.81995   0.55087   0.74200   1.000
loop_
    _geom_bond_atom_site_label_1
    _geom_bond_atom_site_label_2
    _geom_bond_distance
    _geom_bond_site_symmetry_2
    _ccdc_geom_bond_type
    H4     C25       1.09030      .   S
    C25    N45       1.34988      .   S
    C25    C24       1.38941      .   S
    N45    C21       1.34819      .   S
    H3     C24       1.08891      .   S
    C24    C23       1.40016      .   S
    C21    H1        1.08939  1_655   S
    C21    C22       1.39071      .   S
    H0     N44       1.01906      .   S
    C23    C22       1.40130      .   S
    C23    C20       1.50653      .   S
    C22    H2        1.09057      .   S
    N44    C20       1.37549      .   S
    C20    O52       1.23459      .   S
    O53    C26       1.27676      .   S
    H7     C28       1.09058      .   S
    C26    N46       1.37518      .   S
    C26    C29       1.50566      .   S
    N46    H5        1.01890      .   S
    C28    C29       1.40112      .   S
    C28    C27       1.39056      .   S
    C29    C30       1.40020      .   S
    H6     C27       1.08913      .   S
    C27    N47       1.34784      .   S
    C30    H8        1.08885      .   S
    C30    C31       1.38897      .   S
    N47    C31       1.34986      .   S
    C31    H9        1.09028      .   S
    H19    C43       1.09027      .   S
    C43    N51       1.34976      .   S
    C43    C42       1.38896      .   S
    N51    C39       1.34799      .   S
    H18    C42       1.08884      .   S
    C42    C41       1.40004      .   S
    C39    H16       1.08902      .   S
    C39    C40       1.39051      .   S
    H15    N50       1.01845      .   S
    C41    C40       1.40108      .   S
    C41    C38       1.50567      .   S
    C40    H17       1.09078      .   S
    N50    C38       1.37556      .   S
    C38    O55       1.23466      .   S
    O54    C32       1.23463      .   S
    H12    C34       1.09055      .   S
    C32    N48       1.37543      .   S
    C32    C35       1.50656      .   S
    N48    H10       1.01886      .   S
    C34    C35       1.40132      .   S
    C34    C33       1.39071      .   S
    C35    C36       1.40014      .   S
    H11    C33       1.08939  1_655   S
    C33    N49       1.34819      .   S
    C36    H13       1.08891      .   S
    C36    C37       1.38939      .   S
    N49    C37       1.34981      .   S
    C37    H14       1.09041      .   S
