# CIF file generated by openbabel 2.4.90, see http://openbabel.sf.net
data_I
_chemical_name_common ''
_cell_length_a 13.804
_cell_length_b 13.84
_cell_length_c 13.922
_cell_angle_alpha 108.749
_cell_angle_beta 89.966
_cell_angle_gamma 90.155
_space_group_name_H-M_alt 'P 1'
_space_group_name_Hall 'P 1'
loop_
    _symmetry_equiv_pos_as_xyz
    x,y,z
loop_
    _atom_site_label
    _atom_site_type_symbol
    _atom_site_fract_x
    _atom_site_fract_y
    _atom_site_fract_z
    _atom_site_occupancy
    H0      H    0.91882   0.72682   0.11296   1.000
    H1      H    0.77178   0.00626   0.26784   1.000
    H2      H    0.68595   0.72803   0.32096   1.000
    H3      H    0.42119   0.27208   0.38582   1.000
    H4      H    0.27100   0.99328   0.23269   1.000
    H5      H    0.18553   0.27214   0.18162   1.000
    H6      H    0.08114   0.27322   0.88699   1.000
    H7      H    0.22819   0.99378   0.73211   1.000
    H8      H    0.31402   0.27201   0.67900   1.000
    H9      H    0.57879   0.72796   0.61415   1.000
    H10     H    0.72897   0.00676   0.76728   1.000
    H11     H    0.81443   0.72791   0.81836   1.000
    C12     C    0.80458   0.71485   0.21626   1.000
    C13     C    0.86326   0.76668   0.16678   1.000
    C14     C    0.85079   0.87102   0.18398   1.000
    C15     C    0.78097   0.92479   0.25350   1.000
    C16     C    0.72218   0.87283   0.30252   1.000
    C17     C    0.73278   0.76771   0.28330   1.000
    C18     C    0.30558   0.28467   0.28441   1.000
    C19     C    0.36477   0.23253   0.33279   1.000
    C20     C    0.35165   0.12819   0.31550   1.000
    C21     C    0.28070   0.07475   0.24701   1.000
    C22     C    0.22148   0.12702   0.19897   1.000
    C23     C    0.23273   0.23215   0.21828   1.000
    C24     C    0.19538   0.28519   0.78369   1.000
    C25     C    0.13670   0.23336   0.83318   1.000
    C26     C    0.14918   0.12902   0.81598   1.000
    C27     C    0.21899   0.07525   0.74645   1.000
    C28     C    0.27778   0.12721   0.69743   1.000
    C29     C    0.26719   0.23233   0.71658   1.000
    C30     C    0.69438   0.71538   0.71557   1.000
    C31     C    0.63521   0.76751   0.66717   1.000
    C32     C    0.64832   0.87185   0.68445   1.000
    C33     C    0.71926   0.92530   0.75290   1.000
    C34     C    0.77849   0.87303   0.80100   1.000
    C35     C    0.76723   0.76790   0.78170   1.000
loop_
    _geom_bond_atom_site_label_1
    _geom_bond_atom_site_label_2
    _geom_bond_distance
    _geom_bond_site_symmetry_2
    _ccdc_geom_bond_type
    H0     C13       1.09080      .   S
    C13    C14       1.39698      .   S
    C13    C12       1.39964      .   S
    H5     C23       1.08407      .   S
    C14    C15       1.39963      .   S
    C22    C23       1.40029      .   S
    C22    C21       1.39781      .   S
    C12    C17       1.39735      .   S
    C23    C18       1.39790      .   S
    H4     C21       1.08787  1_565   S
    C21    C20       1.39975      .   S
    C15    H1        1.08785  1_565   S
    C15    C16       1.39756      .   S
    C17    C16       1.40018      .   S
    C17    H2        1.08499      .   S
    C18    C19       1.39935      .   S
    C20    C19       1.39679      .   S
    C19    H3        1.09080      .   S
    H9     C31       1.09073      .   S
    C31    C32       1.39683      .   S
    C31    C30       1.39937      .   S
    H8     C29       1.08423      .   S
    C32    C33       1.39947      .   S
    C28    C29       1.40034      .   S
    C28    C27       1.39756      .   S
    C30    C35       1.39792      .   S
    C29    C24       1.39793      .   S
    H7     C27       1.08785  1_565   S
    C27    C26       1.39967      .   S
    C33    H10       1.08774  1_565   S
    C33    C34       1.39836      .   S
    C35    C34       1.40029      .   S
    C35    H11       1.08404      .   S
    C24    C25       1.39970      .   S
    C26    C25       1.39696      .   S
    C25    H6        1.09073      .   S
