# CIF file generated by openbabel 2.4.90, see http://openbabel.sf.net
data_I
_chemical_name_common ''
_cell_length_a 13.804
_cell_length_b 13.84
_cell_length_c 13.922
_cell_angle_alpha 108.749
_cell_angle_beta 89.966
_cell_angle_gamma 90.155
_space_group_name_H-M_alt 'P 1'
_space_group_name_Hall 'P 1'
loop_
    _symmetry_equiv_pos_as_xyz
    x,y,z
loop_
    _atom_site_label
    _atom_site_type_symbol
    _atom_site_fract_x
    _atom_site_fract_y
    _atom_site_fract_z
    _atom_site_occupancy
    H0      H    0.88395   0.58368   0.15590   1.000
    H1      H    0.91882   0.72682   0.11296   1.000
    H2      H    0.77178   0.00626   0.26784   1.000
    H3      H    0.68595   0.72803   0.32096   1.000
    H4      H    0.01461   0.29469   0.15535   1.000
    H5      H    0.95509   0.47328   0.22140   1.000
    H6      H    0.66812   0.35832   0.12075   1.000
    H7      H    0.74184   0.18266   0.05379   1.000
    H8      H    0.38590   0.41578   0.34402   1.000
    H9      H    0.42119   0.27208   0.38582   1.000
    H10     H    0.27100   0.99328   0.23269   1.000
    H11     H    0.18553   0.27214   0.18162   1.000
    H12     H    0.51514   0.70685   0.34551   1.000
    H13     H    0.45638   0.52760   0.28035   1.000
    H14     H    0.16912   0.64005   0.38082   1.000
    H15     H    0.24222   0.81661   0.44689   1.000
    H16     H    0.11602   0.41636   0.84402   1.000
    H17     H    0.08114   0.27322   0.88699   1.000
    H18     H    0.22819   0.99378   0.73211   1.000
    H19     H    0.31402   0.27201   0.67900   1.000
    H20     H    0.98536   0.70535   0.84463   1.000
    H21     H    0.04488   0.52676   0.77858   1.000
    H22     H    0.33185   0.64172   0.87922   1.000
    H23     H    0.25813   0.81738   0.94617   1.000
    H24     H    0.61407   0.58427   0.65594   1.000
    H25     H    0.57879   0.72796   0.61415   1.000
    H26     H    0.72897   0.00676   0.76728   1.000
    H27     H    0.81443   0.72791   0.81836   1.000
    H28     H    0.48482   0.29319   0.65440   1.000
    H29     H    0.54357   0.47244   0.71960   1.000
    H30     H    0.83084   0.36001   0.61917   1.000
    H31     H    0.75775   0.18344   0.55308   1.000
    C32     C    0.80458   0.71485   0.21626   1.000
    C33     C    0.86326   0.76668   0.16678   1.000
    C34     C    0.85079   0.87102   0.18398   1.000
    C35     C    0.78097   0.92479   0.25350   1.000
    C36     C    0.72218   0.87283   0.30252   1.000
    C37     C    0.73278   0.76771   0.28330   1.000
    C38     C    0.76192   0.53560   0.20933   1.000
    C39     C    0.93887   0.31274   0.14745   1.000
    C40     C    0.90446   0.41226   0.18370   1.000
    C41     C    0.80585   0.43053   0.17324   1.000
    C42     C    0.74539   0.34680   0.12827   1.000
    C43     C    0.78543   0.24980   0.09213   1.000
    C44     C    0.30558   0.28467   0.28441   1.000
    C45     C    0.36477   0.23253   0.33279   1.000
    C46     C    0.35165   0.12819   0.31550   1.000
    C47     C    0.28070   0.07475   0.24701   1.000
    C48     C    0.22148   0.12702   0.19897   1.000
    C49     C    0.23273   0.23215   0.21828   1.000
    C50     C    0.26299   0.46394   0.29279   1.000
    C51     C    0.43954   0.68805   0.35349   1.000
    C52     C    0.40551   0.58817   0.31779   1.000
    C53     C    0.30700   0.56916   0.32840   1.000
    C54     C    0.24629   0.65238   0.37320   1.000
    C55     C    0.28595   0.74978   0.40877   1.000
    C56     C    0.19538   0.28519   0.78369   1.000
    C57     C    0.13670   0.23336   0.83318   1.000
    C58     C    0.14918   0.12902   0.81598   1.000
    C59     C    0.21899   0.07525   0.74645   1.000
    C60     C    0.27778   0.12721   0.69743   1.000
    C61     C    0.26719   0.23233   0.71658   1.000
    C62     C    0.23805   0.46444   0.79065   1.000
    C63     C    0.06110   0.68731   0.85253   1.000
    C64     C    0.09550   0.58778   0.81627   1.000
    C65     C    0.19411   0.56951   0.82673   1.000
    C66     C    0.25458   0.65324   0.87170   1.000
    C67     C    0.21454   0.75024   0.90780   1.000
    C68     C    0.69438   0.71538   0.71557   1.000
    C69     C    0.63521   0.76751   0.66717   1.000
    C70     C    0.64832   0.87185   0.68445   1.000
    C71     C    0.71926   0.92530   0.75290   1.000
    C72     C    0.77849   0.87303   0.80100   1.000
    C73     C    0.76723   0.76790   0.78170   1.000
    C74     C    0.73696   0.53611   0.70723   1.000
    C75     C    0.56043   0.31200   0.64649   1.000
    C76     C    0.59445   0.41188   0.68210   1.000
    C77     C    0.69297   0.43088   0.67150   1.000
    C78     C    0.75367   0.34766   0.62678   1.000
    C79     C    0.71401   0.25027   0.59121   1.000
    N80     N    0.82226   0.60955   0.19608   1.000
    N81     N    0.88072   0.23291   0.10126   1.000
    N82     N    0.32368   0.38998   0.30469   1.000
    N83     N    0.38114   0.76740   0.39930   1.000
    N84     N    0.17770   0.39048   0.80387   1.000
    N85     N    0.11925   0.76714   0.89871   1.000
    N86     N    0.67628   0.61007   0.69520   1.000
    N87     N    0.61882   0.23265   0.60061   1.000
    O88     O    0.67950   0.55029   0.24550   1.000
    O89     O    0.18000   0.44918   0.25000   1.000
    O90     O    0.32046   0.44974   0.75446   1.000
    O91     O    0.81995   0.55087   0.74200   1.000
loop_
    _geom_bond_atom_site_label_1
    _geom_bond_atom_site_label_2
    _geom_bond_distance
    _geom_bond_site_symmetry_2
    _ccdc_geom_bond_type
    H7     C43       1.09030      .   S
    C43    N81       1.34988      .   S
    C43    C42       1.38941      .   S
    N81    C39       1.34819      .   S
    H1     C33       1.09080      .   S
    H6     C42       1.08891      .   S
    C42    C41       1.40016      .   S
    C39    H4        1.08939  1_655   S
    C39    C40       1.39071      .   S
    H0     N80       1.01906      .   S
    C33    C34       1.39698      .   S
    C33    C32       1.39964      .   S
    C41    C40       1.40130      .   S
    C41    C38       1.50653      .   S
    H11    C49       1.08407      .   S
    C40    H5        1.09057      .   S
    C34    C35       1.39963      .   S
    N80    C38       1.37549      .   S
    N80    C32       1.41453      .   S
    C48    C49       1.40029      .   S
    C48    C47       1.39781      .   S
    C38    O88       1.23459      .   S
    C32    C37       1.39735      .   S
    C49    C44       1.39790      .   S
    H10    C47       1.08787  1_565   S
    C47    C46       1.39975      .   S
    O89    C50       1.27676      .   S
    C35    H2        1.08785  1_565   S
    C35    C36       1.39756      .   S
    H13    C52       1.09058      .   S
    C37    C36       1.40018      .   S
    C37    H3        1.08499      .   S
    C44    N82       1.41424      .   S
    C44    C45       1.39935      .   S
    C50    N82       1.37518      .   S
    C50    C53       1.50566      .   S
    N82    H8        1.01890      .   S
    C46    C45       1.39679      .   S
    C52    C53       1.40112      .   S
    C52    C51       1.39056      .   S
    C53    C54       1.40020      .   S
    C45    H9        1.09080      .   S
    H12    C51       1.08913      .   S
    C51    N83       1.34784      .   S
    C54    H14       1.08885      .   S
    C54    C55       1.38897      .   S
    N83    C55       1.34986      .   S
    C55    H15       1.09028      .   S
    H31    C79       1.09027      .   S
    C79    N87       1.34976      .   S
    C79    C78       1.38896      .   S
    N87    C75       1.34799      .   S
    H25    C69       1.09073      .   S
    H30    C78       1.08884      .   S
    C78    C77       1.40004      .   S
    C75    H28       1.08902      .   S
    C75    C76       1.39051      .   S
    H24    N86       1.01845      .   S
    C69    C70       1.39683      .   S
    C69    C68       1.39937      .   S
    C77    C76       1.40108      .   S
    C77    C74       1.50567      .   S
    H19    C61       1.08423      .   S
    C76    H29       1.09078      .   S
    C70    C71       1.39947      .   S
    N86    C74       1.37556      .   S
    N86    C68       1.41410      .   S
    C60    C61       1.40034      .   S
    C60    C59       1.39756      .   S
    C74    O91       1.23466      .   S
    C68    C73       1.39792      .   S
    C61    C56       1.39793      .   S
    H18    C59       1.08785  1_565   S
    C59    C58       1.39967      .   S
    C71    H26       1.08774  1_565   S
    C71    C72       1.39836      .   S
    O90    C62       1.23463      .   S
    H21    C64       1.09055      .   S
    C73    C72       1.40029      .   S
    C73    H27       1.08404      .   S
    C56    N84       1.41454      .   S
    C56    C57       1.39970      .   S
    C62    N84       1.37543      .   S
    C62    C65       1.50656      .   S
    N84    H16       1.01886      .   S
    C58    C57       1.39696      .   S
    C64    C65       1.40132      .   S
    C64    C63       1.39071      .   S
    C65    C66       1.40014      .   S
    C57    H17       1.09073      .   S
    H20    C63       1.08939  1_655   S
    C63    N85       1.34819      .   S
    C66    H22       1.08891      .   S
    C66    C67       1.38939      .   S
    N85    C67       1.34981      .   S
    C67    H23       1.09041      .   S
