# CIF file generated by openbabel 2.4.90, see http://openbabel.sf.net
data_I
_chemical_name_common ''
_cell_length_a 13.804
_cell_length_b 13.84
_cell_length_c 13.922
_cell_angle_alpha 108.749
_cell_angle_beta 89.966
_cell_angle_gamma 90.155
_space_group_name_H-M_alt 'P 1'
_space_group_name_Hall 'P 1'
loop_
    _symmetry_equiv_pos_as_xyz
    x,y,z
loop_
    _atom_site_label
    _atom_site_type_symbol
    _atom_site_fract_x
    _atom_site_fract_y
    _atom_site_fract_z
    _atom_site_occupancy
    Zn0     Zn   0.55802   0.08941   0.53688   1.000
    Zn1     Zn   0.94216   0.09007   0.03730   1.000
    Zn2     Zn   0.44196   0.91064   0.46309   1.000
    Zn3     Zn   0.05781   0.90998   0.96262   1.000
    C4      C    0.91070   0.92234   0.12394   1.000
    C5      C    0.64517   0.92789   0.37576   1.000
    C6      C    0.41195   0.07676   0.37485   1.000
    C7      C    0.14353   0.07250   0.12631   1.000
    C8      C    0.08926   0.07770   0.87602   1.000
    C9      C    0.35481   0.07215   0.62422   1.000
    C10     C    0.58803   0.92328   0.62510   1.000
    C11     C    0.85643   0.92755   0.87367   1.000
    O12     O    0.97910   0.86995   0.07118   1.000
    O13     O    0.88685   0.01266   0.12906   1.000
    O14     O    0.66115   0.02030   0.42844   1.000
    O15     O    0.56983   0.87587   0.37933   1.000
    O16     O    0.48145   0.12867   0.42640   1.000
    O17     O    0.38723   0.98674   0.37047   1.000
    O18     O    0.15861   0.98008   0.07324   1.000
    O19     O    0.06858   0.12490   0.12348   1.000
    O20     O    0.02088   0.13010   0.92880   1.000
    O21     O    0.11311   0.98737   0.87089   1.000
    O22     O    0.33883   0.97974   0.57150   1.000
    O23     O    0.43014   0.12418   0.62062   1.000
    O24     O    0.51853   0.87137   0.57354   1.000
    O25     O    0.61273   0.01331   0.62950   1.000
    O26     O    0.84136   0.01998   0.92671   1.000
    O27     O    0.93137   0.87515   0.87652   1.000
loop_
    _geom_bond_atom_site_label_1
    _geom_bond_atom_site_label_2
    _geom_bond_distance
    _geom_bond_site_symmetry_2
    _ccdc_geom_bond_type
    Zn1    O19       2.08417  1_655   S
    Zn1    O13       2.05833      .   S
    Zn1    O26       2.06944  1_554   S
    Zn1    O20       2.07420  1_654   S
    O12    C4        1.27173      .   S
    O12    Zn3       2.07485  1_654   S
    O18    C7        1.27242  1_565   S
    O18    Zn3       2.06976  1_554   S
    O19    C7        1.27285      .   S
    C4     O13       1.27323  1_565   S
    O17    C6        1.27337  1_565   S
    O17    Zn2       2.05445      .   S
    C6     O16       1.27169      .   S
    C5     O15       1.27325      .   S
    C5     O14       1.27204  1_565   S
    O15    Zn2       2.08531      .   S
    O16    Zn0       2.07851      .   S
    O14    Zn0       2.07302      .   S
    Zn2    O22       2.07267      .   S
    Zn2    O24       2.07837      .   S
    Zn0    O23       2.08530      .   S
    Zn0    O25       2.05449      .   S
    O22    C9        1.27217  1_565   S
    O24    C10       1.27173      .   S
    O23    C9        1.27329      .   S
    C10    O25       1.27336  1_565   S
    O21    C8        1.27322  1_565   S
    O21    Zn3       2.05774      .   S
    C11    O27       1.27285      .   S
    C11    O26       1.27241  1_565   S
    C8     O20       1.27173      .   S
    O27    Zn3       2.08382  1_655   S
    Zn3    Zn1       2.86281  1_466   S
    Zn0    Zn2       2.84436  1_545   S
