# CIF file generated by openbabel 2.4.90, see http://openbabel.sf.net
data_I
_chemical_name_common ''
_cell_length_a 13.804
_cell_length_b 13.84
_cell_length_c 13.922
_cell_angle_alpha 108.749
_cell_angle_beta 89.966
_cell_angle_gamma 90.155
_space_group_name_H-M_alt 'P 1'
_space_group_name_Hall 'P 1'
loop_
    _symmetry_equiv_pos_as_xyz
    x,y,z
loop_
    _atom_site_label
    _atom_site_type_symbol
    _atom_site_fract_x
    _atom_site_fract_y
    _atom_site_fract_z
    _atom_site_occupancy
    N0      N    0.29274   0.17965   0.26634   1.000
    N1      N    0.20762   0.18015   0.76571   1.000
    N2      N    0.70723   0.82040   0.73362   1.000
    N3      N    0.79235   0.81989   0.23423   1.000
    Zr4     Zr   0.49999   0.00002   0.49998   1.000
    O5      O    0.38097   0.06997   0.60662   1.000
    O6      O    0.61900   0.93007   0.39333   1.000
    Zr7     Zr   0.99998   0.00002   0.99998   1.000
    O8      O    0.11880   0.06986   0.10724   1.000
    O9      O    0.88116   0.93018   0.89273   1.000
    O10     O    0.92652   0.03453   0.07668   1.000
    O11     O    0.57314   0.03467   0.57646   1.000
    O12     O    0.42683   0.96538   0.42342   1.000
    O13     O    0.07344   0.96552   0.92328   1.000
loop_
    _geom_bond_atom_site_label_1
    _geom_bond_atom_site_label_2
    _geom_bond_distance
    _geom_bond_site_symmetry_2
    _ccdc_geom_bond_type
    Zr4    O5        2.21865      .   S
    N1     O5        3.28626      .   S
    Zr4    O6        2.21862  1_545   S
    N3     O6        3.28628      .   S
    Zr7    O8        2.21825  1_656   S
    N0     O8        3.28678      .   S
    Zr7    O9        2.21823  1_545   S
    N2     O9        3.28679      .   S
    N3     O10       4.60662  1_565   S
    Zr7    O10       1.43874  1_556   S
    Zr4    O11       1.43313      .   S
    N2     O11       4.60572  1_565   S
    Zr4    O12       1.43383  1_545   S
    N0     O12       4.60498  1_545   S
    Zr7    O13       1.43879  1_645   S
    N1     O13       4.60665  1_545   S
