# CIF file generated by openbabel 2.4.90, see http://openbabel.sf.net
data_I
_chemical_name_common ''
_cell_length_a 13.804
_cell_length_b 13.84
_cell_length_c 13.922
_cell_angle_alpha 108.749
_cell_angle_beta 89.966
_cell_angle_gamma 90.155
_space_group_name_H-M_alt 'P 1'
_space_group_name_Hall 'P 1'
loop_
    _symmetry_equiv_pos_as_xyz
    x,y,z
loop_
    _atom_site_label
    _atom_site_type_symbol
    _atom_site_fract_x
    _atom_site_fract_y
    _atom_site_fract_z
    _atom_site_occupancy
    N0      N    0.29274   0.17965   0.26634   1.000
    N1      N    0.20762   0.18015   0.76571   1.000
    N2      N    0.70723   0.82040   0.73362   1.000
    N3      N    0.79235   0.81989   0.23423   1.000
    Zr4     Zr   0.49999   0.00002   0.49998   1.000
    O5      O    0.41863   0.07054   0.40287   1.000
    O6      O    0.38097   0.06997   0.60662   1.000
    O7      O    0.43504   0.86021   0.44397   1.000
    O8      O    0.56493   0.13983   0.55584   1.000
    O9      O    0.61900   0.93007   0.39333   1.000
    O10     O    0.58135   0.92950   0.59709   1.000
    Zr11    Zr   0.99998   0.00002   0.99998   1.000
    O12     O    0.08170   0.07089   0.90292   1.000
    O13     O    0.93478   0.13990   0.05631   1.000
    O14     O    0.91826   0.92915   0.09704   1.000
    O15     O    0.11880   0.06986   0.10724   1.000
    O16     O    0.06519   0.86014   0.94365   1.000
    O17     O    0.88116   0.93018   0.89273   1.000
loop_
    _geom_bond_atom_site_label_1
    _geom_bond_atom_site_label_2
    _geom_bond_distance
    _geom_bond_site_symmetry_2
    _ccdc_geom_bond_type
    Zr4    O5        2.21307      .   S
    N0     O5        3.28266      .   S
    Zr4    O6        2.21865      .   S
    N1     O6        3.28626      .   S
    Zr4    O7        2.04388  1_545   S
    N0     O7        6.04973  1_545   S
    Zr4    O8        2.04372      .   S
    N2     O8        6.05112  1_565   S
    Zr4    O9        2.21862  1_545   S
    N3     O9        3.28628      .   S
    Zr4    O10       2.21305  1_545   S
    N2     O10       3.28266      .   S
    Zr11   O12       2.21464  1_655   S
    N1     O12       3.28564      .   S
    Zr11   O13       2.05076  1_556   S
    N3     O13       6.05121  1_565   S
    Zr11   O14       2.21462  1_546   S
    N3     O14       3.28557      .   S
    Zr11   O15       2.21825  1_656   S
    N0     O15       3.28678      .   S
    Zr11   O16       2.05077  1_645   S
    N1     O16       6.05121  1_545   S
    Zr11   O17       2.21823  1_545   S
    N2     O17       3.28679      .   S
