# CIF file generated by openbabel 2.4.90, see http://openbabel.sf.net
data_I
_chemical_name_common ''
_cell_length_a 13.804
_cell_length_b 13.84
_cell_length_c 13.922
_cell_angle_alpha 108.749
_cell_angle_beta 89.966
_cell_angle_gamma 90.155
_space_group_name_H-M_alt 'P 1'
_space_group_name_Hall 'P 1'
loop_
    _symmetry_equiv_pos_as_xyz
    x,y,z
loop_
    _atom_site_label
    _atom_site_type_symbol
    _atom_site_fract_x
    _atom_site_fract_y
    _atom_site_fract_z
    _atom_site_occupancy
    Zr0     Zr   0.05781   0.90998   0.96262   1.000
    Zr1     Zr   0.55802   0.08941   0.53688   1.000
    Zr2     Zr   0.94216   0.09007   0.03730   1.000
    Zr3     Zr   0.44196   0.91064   0.46309   1.000
    Zr4     Zr   0.91070   0.92234   0.12394   1.000
    Zr5     Zr   0.64517   0.92789   0.37576   1.000
    Zr6     Zr   0.41195   0.07676   0.37485   1.000
    Zr7     Zr   0.14353   0.07250   0.12631   1.000
    Zr8     Zr   0.08926   0.07770   0.87602   1.000
    Zr9     Zr   0.35481   0.07215   0.62422   1.000
    Zr10    Zr   0.58803   0.92328   0.62510   1.000
    Zr11    Zr   0.85643   0.92755   0.87367   1.000
    Zr12    Zr   0.97910   0.86995   0.07118   1.000
    Zr13    Zr   0.88685   0.01266   0.12906   1.000
    Zr14    Zr   0.66115   0.02030   0.42844   1.000
    Zr15    Zr   0.56983   0.87587   0.37933   1.000
    Zr16    Zr   0.48145   0.12867   0.42640   1.000
    Zr17    Zr   0.38723   0.98674   0.37047   1.000
    Zr18    Zr   0.15861   0.98008   0.07324   1.000
    Zr19    Zr   0.06858   0.12490   0.12348   1.000
    Zr20    Zr   0.02088   0.13010   0.92880   1.000
    Zr21    Zr   0.11311   0.98737   0.87089   1.000
    Zr22    Zr   0.33883   0.97974   0.57150   1.000
    Zr23    Zr   0.43014   0.12418   0.62062   1.000
    Zr24    Zr   0.51853   0.87137   0.57354   1.000
    Zr25    Zr   0.61273   0.01331   0.62950   1.000
    Zr26    Zr   0.84136   0.01998   0.92671   1.000
    Zr27    Zr   0.93137   0.87515   0.87652   1.000
    O28     O    0.00537   0.10748   0.08039   1.000
    O29     O    0.91451   0.05137   0.08318   1.000
    O30     O    0.89176   0.05502   0.98200   1.000
    O31     O    0.98152   0.11009   0.98305   1.000
    O32     O    0.94490   0.89614   0.09756   1.000
    O33     O    0.01846   0.88996   0.01690   1.000
    O34     O    0.15107   0.02629   0.09978   1.000
    O35     O    0.10821   0.94503   0.01793   1.000
    O36     O    0.10606   0.09870   0.12490   1.000
    O37     O    0.89878   0.96750   0.12650   1.000
    O38     O    0.39959   0.03175   0.37266   1.000
    O39     O    0.41460   0.94869   0.41678   1.000
    O40     O    0.44670   0.10271   0.40062   1.000
    O41     O    0.60750   0.90188   0.37755   1.000
    O42     O    0.65316   0.97409   0.40210   1.000
    O43     O    0.50589   0.89326   0.42121   1.000
    O44     O    0.51974   0.10904   0.48164   1.000
    O45     O    0.60959   0.05486   0.48266   1.000
    O46     O    0.39039   0.94519   0.51729   1.000
    O47     O    0.48024   0.89101   0.51832   1.000
    O48     O    0.49408   0.10680   0.57875   1.000
    O49     O    0.58538   0.05136   0.58319   1.000
    O50     O    0.34682   0.02595   0.59786   1.000
    O51     O    0.55328   0.89732   0.59932   1.000
    O52     O    0.39247   0.09817   0.62242   1.000
    O53     O    0.60038   0.96829   0.62730   1.000
    O54     O    0.10118   0.03254   0.87345   1.000
    O55     O    0.08546   0.94868   0.91675   1.000
    O56     O    0.89390   0.90135   0.87509   1.000
    O57     O    0.84889   0.97376   0.90019   1.000
    O58     O    0.05507   0.10390   0.90241   1.000
    O59     O    0.99459   0.89257   0.91957   1.000
    O60     O    0.99998   0.00003   0.99996   1.000
    O61     O    0.49999   0.00003   0.49999   1.000
    N62     N    0.29274   0.17965   0.26634   1.000
    O63     O    0.33727   0.14106   0.30576   1.000
    O64     O    0.23762   0.13970   0.21449   1.000
    O65     O    0.37009   0.72040   0.38796   1.000
    N66     N    0.20762   0.18015   0.76571   1.000
    O67     O    0.26195   0.13992   0.71327   1.000
    O68     O    0.16342   0.14175   0.80586   1.000
    O69     O    0.13039   0.72026   0.88731   1.000
    N70     N    0.70723   0.82040   0.73362   1.000
    O71     O    0.76234   0.86034   0.78548   1.000
    O72     O    0.66270   0.85898   0.69420   1.000
    O73     O    0.62987   0.27965   0.61171   1.000
    N74     N    0.79235   0.81989   0.23423   1.000
    O75     O    0.73801   0.86012   0.28669   1.000
    O76     O    0.83655   0.85828   0.19410   1.000
    O77     O    0.86958   0.27978   0.11265   1.000
loop_
    _geom_bond_atom_site_label_1
    _geom_bond_atom_site_label_2
    _geom_bond_distance
    _geom_bond_site_symmetry_2
    _ccdc_geom_bond_type
    Zr2    O28       1.04209  1_655   S
    Zr19   O28       1.04209      .   S
    Zr2    O29       1.02916      .   S
    Zr13   O29       1.02916      .   S
    Zr2    O30       1.03472  1_554   S
    Zr26   O30       1.03472      .   S
    Zr2    O31       1.03710  1_554   S
    Zr20   O31       1.03710  1_455   S
    Zr12   O32       0.63586      .   S
    Zr4    O32       0.63586      .   S
    Zr12   O33       1.03743  1_655   S
    Zr0    O33       1.03743  1_556   S
    Zr18   O34       0.63621  1_565   S
    Zr7    O34       0.63621      .   S
    Zr18   O35       1.03488      .   S
    Zr0    O35       1.03488  1_556   S
    Zr19   O36       0.63642      .   S
    Zr7    O36       0.63642      .   S
    Zr4    O37       0.63661      .   S
    Zr13   O37       0.63661  1_545   S
    Zr17   O38       0.63669  1_565   S
    Zr6    O38       0.63669      .   S
    Zr17   O39       1.02722      .   S
    Zr3    O39       1.02722      .   S
    Zr6    O40       0.63584      .   S
    Zr16   O40       0.63584      .   S
    Zr5    O41       0.63663      .   S
    Zr15   O41       0.63663      .   S
    Zr5    O42       0.63602      .   S
    Zr14   O42       0.63602  1_545   S
    Zr15   O43       1.04266      .   S
    Zr3    O43       1.04266      .   S
    Zr16   O44       1.03926      .   S
    Zr1    O44       1.03926      .   S
    Zr14   O45       1.03651      .   S
    Zr1    O45       1.03651      .   S
    Zr3    O46       1.03634      .   S
    Zr22   O46       1.03634      .   S
    Zr3    O47       1.03919      .   S
    Zr24   O47       1.03919      .   S
    Zr1    O48       1.04265      .   S
    Zr23   O48       1.04265      .   S
    Zr1    O49       1.02725      .   S
    Zr25   O49       1.02725      .   S
    Zr22   O50       0.63609  1_565   S
    Zr9    O50       0.63609      .   S
    Zr24   O51       0.63586      .   S
    Zr10   O51       0.63586      .   S
    Zr23   O52       0.63665      .   S
    Zr9    O52       0.63665      .   S
    Zr10   O53       0.63668      .   S
    Zr25   O53       0.63668  1_545   S
    Zr21   O54       0.63661  1_565   S
    Zr8    O54       0.63661      .   S
    Zr21   O55       1.02887      .   S
    Zr0    O55       1.02887      .   S
    Zr11   O56       0.63643      .   S
    Zr27   O56       0.63643      .   S
    Zr11   O57       0.63621      .   S
    Zr26   O57       0.63621  1_545   S
    Zr8    O58       0.63587      .   S
    Zr20   O58       0.63587      .   S
    Zr27   O59       1.04191      .   S
    Zr0    O59       1.04191  1_455   S
    Zr0    O60       1.43141  1_465   S
    Zr2    O60       1.43141  1_554   S
    Zr1    O61       1.42218      .   S
    Zr3    O61       1.42218  1_565   S
    N62    O63       1.07456      .   S
    Zr6    O63       1.82656      .   S
    N62    O64       1.07116      .   S
    Zr7    O64       1.82222      .   S
    N62    O65       7.16667  1_545   S
    Zr3    O65       2.68835      .   S
    N66    O67       1.07052      .   S
    Zr9    O67       1.82115      .   S
    N66    O68       1.07505      .   S
    Zr8    O68       1.82717      .   S
    N66    O69       7.16947  1_545   S
    Zr0    O69       2.69087      .   S
    N70    O71       1.07119      .   S
    Zr11   O71       1.82224      .   S
    N70    O72       1.07458      .   S
    Zr10   O72       1.82649      .   S
    N70    O73       7.16893  1_565   S
    Zr1    O73       2.68791      .   S
    N74    O75       1.07057      .   S
    Zr5    O75       1.82123      .   S
    N74    O76       1.07500      .   S
    Zr4    O76       1.82710      .   S
    N74    O77       7.16953  1_565   S
    Zr2    O77       2.69079      .   S
