# CIF file generated by openbabel 2.4.90, see http://openbabel.sf.net
data_I
_chemical_name_common 'VESTA_phase_1'
_cell_length_a 24.165
_cell_length_b 15.381
_cell_length_c 17.043
_cell_angle_alpha 89.908
_cell_angle_beta 90.006
_cell_angle_gamma 91.729
_space_group_name_H-M_alt 'P 1'
_space_group_name_Hall 'P 1'
loop_
    _symmetry_equiv_pos_as_xyz
    x,y,z
loop_
    _atom_site_label
    _atom_site_type_symbol
    _atom_site_fract_x
    _atom_site_fract_y
    _atom_site_fract_z
    _atom_site_occupancy
    Cd0     Cd   0.15646   0.29776   0.85582   1.000
    Cd1     Cd   0.65646   0.29779   0.85583   1.000
    Cd2     Cd   0.28657   0.22687   0.80502   1.000
    Cd3     Cd   0.78655   0.22686   0.80503   1.000
    Cd4     Cd   0.37916   0.00000   0.70860   1.000
    Cd5     Cd   0.87915   0.00000   0.70860   1.000
    Cd6     Cd   0.09342   0.20238   0.35552   1.000
    Cd7     Cd   0.59342   0.20238   0.35550   1.000
    Cd8     Cd   0.46346   0.27347   0.30518   1.000
    Cd9     Cd   0.96344   0.27345   0.30519   1.000
    Cd10    Cd   0.37064   0.49246   0.20946   1.000
    Cd11    Cd   0.87076   0.49233   0.20936   1.000
    Cd12    Cd   0.34355   0.70223   0.14418   1.000
    Cd13    Cd   0.84354   0.70226   0.14418   1.000
    Cd14    Cd   0.21346   0.77314   0.19497   1.000
    Cd15    Cd   0.71344   0.77314   0.19498   1.000
    Cd16    Cd   0.12084   0.99195   0.29140   1.000
    Cd17    Cd   0.62084   0.99192   0.29138   1.000
    Cd18    Cd   0.40658   0.79763   0.64449   1.000
    Cd19    Cd   0.90658   0.79763   0.64448   1.000
    Cd20    Cd   0.03656   0.72655   0.69481   1.000
    Cd21    Cd   0.53655   0.72653   0.69481   1.000
    Cd22    Cd   0.12926   0.50765   0.79062   1.000
    Cd23    Cd   0.62937   0.50752   0.79050   1.000
    H24     H    0.33677   0.40099   0.82048   1.000
    H25     H    0.83681   0.40095   0.82047   1.000
    H26     H    0.29652   0.43355   0.95018   1.000
    H27     H    0.79656   0.43355   0.95015   1.000
    H28     H    0.28643   0.54321   0.92140   1.000
    H29     H    0.78645   0.54320   0.92141   1.000
    H30     H    0.46210   0.15949   0.69251   1.000
    H31     H    0.96208   0.15950   0.69250   1.000
    H32     H    0.45805   0.35656   0.71685   1.000
    H33     H    0.95788   0.35655   0.71687   1.000
    H34     H    0.48566   0.28106   0.78399   1.000
    H35     H    0.98554   0.28108   0.78400   1.000
    H36     H    0.05790   0.24208   0.69000   1.000
    H37     H    0.55793   0.24181   0.68990   1.000
    H38     H    0.01074   0.38247   0.58241   1.000
    H39     H    0.51088   0.38236   0.58238   1.000
    H40     H    0.06952   0.32120   0.56239   1.000
    H41     H    0.56960   0.32097   0.56232   1.000
    H42     H    0.31341   0.58979   0.77677   1.000
    H43     H    0.81344   0.58973   0.77670   1.000
    H44     H    0.34024   0.51060   0.71365   1.000
    H45     H    0.84030   0.51055   0.71362   1.000
    H46     H    0.42512   0.50158   0.79605   1.000
    H47     H    0.92517   0.50163   0.79605   1.000
    H48     H    0.37463   0.64404   0.89703   1.000
    H49     H    0.87462   0.64406   0.89699   1.000
    H50     H    0.44098   0.59966   0.90850   1.000
    H51     H    0.94097   0.59974   0.90848   1.000
    H52     H    0.39762   0.45450   0.93991   1.000
    H53     H    0.89765   0.45453   0.93987   1.000
    H54     H    0.41055   0.18493   0.56872   1.000
    H55     H    0.91056   0.18490   0.56868   1.000
    H56     H    0.41253   0.29834   0.58606   1.000
    H57     H    0.91247   0.29830   0.58603   1.000
    H58     H    0.01344   0.18495   0.55990   1.000
    H59     H    0.51342   0.18483   0.55980   1.000
    H60     H    0.41304   0.09855   0.31946   1.000
    H61     H    0.91305   0.09854   0.31944   1.000
    H62     H    0.45315   0.06684   0.44949   1.000
    H63     H    0.95314   0.06684   0.44948   1.000
    H64     H    0.46365   0.95714   0.42153   1.000
    H65     H    0.96365   0.95714   0.42153   1.000
    H66     H    0.28795   0.34059   0.19200   1.000
    H67     H    0.78796   0.34054   0.19211   1.000
    H68     H    0.29247   0.14362   0.21738   1.000
    H69     H    0.79245   0.14356   0.21734   1.000
    H70     H    0.26468   0.21912   0.28415   1.000
    H71     H    0.76468   0.21905   0.28413   1.000
    H72     H    0.19221   0.25753   0.18996   1.000
    H73     H    0.69221   0.25752   0.18990   1.000
    H74     H    0.23972   0.11709   0.08306   1.000
    H75     H    0.73969   0.11708   0.08304   1.000
    H76     H    0.18074   0.17791   0.06272   1.000
    H77     H    0.68073   0.17791   0.06271   1.000
    H78     H    0.43688   0.90971   0.27699   1.000
    H79     H    0.93688   0.90969   0.27700   1.000
    H80     H    0.40982   0.98840   0.21336   1.000
    H81     H    0.90985   0.98838   0.21335   1.000
    H82     H    0.32488   0.99714   0.29573   1.000
    H83     H    0.82490   0.99717   0.29570   1.000
    H84     H    0.37585   0.85551   0.39753   1.000
    H85     H    0.87585   0.85550   0.39748   1.000
    H86     H    0.30932   0.89925   0.40866   1.000
    H87     H    0.80932   0.89923   0.40862   1.000
    H88     H    0.35214   0.04499   0.43913   1.000
    H89     H    0.85213   0.04497   0.43910   1.000
    H90     H    0.33943   0.31513   0.06837   1.000
    H91     H    0.83941   0.31512   0.06837   1.000
    H92     H    0.33773   0.20176   0.08623   1.000
    H93     H    0.83771   0.20174   0.08619   1.000
    H94     H    0.23648   0.31454   0.05979   1.000
    H95     H    0.73647   0.31453   0.05970   1.000
    H96     H    0.16320   0.59906   0.17953   1.000
    H97     H    0.66324   0.59902   0.17952   1.000
    H98     H    0.20345   0.56646   0.04984   1.000
    H99     H    0.70348   0.56646   0.04981   1.000
    H100    H    0.21355   0.45681   0.07858   1.000
    H101    H    0.71357   0.45680   0.07852   1.000
    H102    H    0.03793   0.84051   0.30749   1.000
    H103    H    0.53790   0.84051   0.30748   1.000
    H104    H    0.04214   0.64347   0.28312   1.000
    H105    H    0.54197   0.64344   0.28314   1.000
    H106    H    0.01448   0.71893   0.21599   1.000
    H107    H    0.51435   0.71893   0.21600   1.000
    H108    H    0.44206   0.75815   0.31002   1.000
    H109    H    0.94210   0.75789   0.30991   1.000
    H110    H    0.48914   0.61763   0.41762   1.000
    H111    H    0.98928   0.61753   0.41758   1.000
    H112    H    0.43040   0.67900   0.43767   1.000
    H113    H    0.93049   0.67879   0.43758   1.000
    H114    H    0.18656   0.41027   0.22320   1.000
    H115    H    0.68658   0.41022   0.22322   1.000
    H116    H    0.15970   0.48946   0.28638   1.000
    H117    H    0.65976   0.48941   0.28630   1.000
    H118    H    0.07483   0.49839   0.20395   1.000
    H119    H    0.57489   0.49844   0.20395   1.000
    H120    H    0.12537   0.35596   0.10300   1.000
    H121    H    0.62536   0.35598   0.10296   1.000
    H122    H    0.05902   0.40029   0.09152   1.000
    H123    H    0.55902   0.40037   0.09150   1.000
    H124    H    0.10235   0.54548   0.06012   1.000
    H125    H    0.60238   0.54552   0.06007   1.000
    H126    H    0.08943   0.81513   0.43132   1.000
    H127    H    0.58943   0.81509   0.43127   1.000
    H128    H    0.08754   0.70173   0.41397   1.000
    H129    H    0.58748   0.70169   0.41394   1.000
    H130    H    0.48657   0.81516   0.44011   1.000
    H131    H    0.98655   0.81505   0.44005   1.000
    H132    H    0.08696   0.90147   0.68056   1.000
    H133    H    0.58696   0.90146   0.68050   1.000
    H134    H    0.04686   0.93317   0.55052   1.000
    H135    H    0.54684   0.93317   0.55051   1.000
    H136    H    0.03634   0.04287   0.57847   1.000
    H137    H    0.53634   0.04287   0.57848   1.000
    H138    H    0.21204   0.65946   0.80789   1.000
    H139    H    0.71205   0.65941   0.80791   1.000
    H140    H    0.20754   0.85644   0.78267   1.000
    H141    H    0.70752   0.85638   0.78263   1.000
    H142    H    0.23532   0.78096   0.71587   1.000
    H143    H    0.73531   0.78089   0.71585   1.000
    H144    H    0.30778   0.74248   0.81005   1.000
    H145    H    0.80778   0.74247   0.81004   1.000
    H146    H    0.26030   0.88293   0.91696   1.000
    H147    H    0.76027   0.88292   0.91693   1.000
    H148    H    0.31927   0.82211   0.93729   1.000
    H149    H    0.81925   0.82211   0.93727   1.000
    H150    H    0.06311   0.09032   0.72300   1.000
    H151    H    0.56312   0.09030   0.72301   1.000
    H152    H    0.09015   0.00000   0.78665   1.000
    H153    H    0.59018   0.00000   0.78664   1.000
    H154    H    0.17510   0.00000   0.70400   1.000
    H155    H    0.67511   0.00000   0.70420   1.000
    H156    H    0.12414   0.14452   0.60252   1.000
    H157    H    0.62414   0.14451   0.60248   1.000
    H158    H    0.19067   0.10079   0.59138   1.000
    H159    H    0.69067   0.10077   0.59130   1.000
    H160    H    0.14786   0.95505   0.56090   1.000
    H161    H    0.64785   0.95503   0.56088   1.000
    H162    H    0.16058   0.68488   0.93163   1.000
    H163    H    0.66056   0.68487   0.93163   1.000
    H164    H    0.16228   0.79826   0.91381   1.000
    H165    H    0.66227   0.79824   0.91377   1.000
    H166    H    0.26353   0.68548   0.94021   1.000
    H167    H    0.76351   0.68547   0.94021   1.000
    C168    C    0.25327   0.43995   0.80395   1.000
    C169    C    0.75331   0.43994   0.80394   1.000
    C170    C    0.31313   0.46045   0.82668   1.000
    C171    C    0.81317   0.46042   0.82666   1.000
    C172    C    0.31337   0.48732   0.91390   1.000
    C173    C    0.81340   0.48732   0.91392   1.000
    C174    C    0.38644   0.21862   0.72380   1.000
    C175    C    0.88639   0.21858   0.72383   1.000
    C176    C    0.44259   0.22258   0.68385   1.000
    C177    C    0.94254   0.22257   0.68384   1.000
    C178    C    0.47939   0.29448   0.72134   1.000
    C179    C    0.97928   0.29452   0.72135   1.000
    C180    C    0.03589   0.30298   0.67984   1.000
    C181    C    0.53600   0.30280   0.67979   1.000
    C182    C    0.02910   0.31860   0.59171   1.000
    C183    C    0.52919   0.31844   0.59167   1.000
    C184    C    0.33932   0.53234   0.77506   1.000
    C185    C    0.83936   0.53231   0.77502   1.000
    C186    C    0.39791   0.55740   0.80264   1.000
    C187    C    0.89794   0.55742   0.80262   1.000
    C188    C    0.42435   0.63193   0.75475   1.000
    C189    C    0.92436   0.63197   0.75474   1.000
    C190    C    0.39824   0.58445   0.88978   1.000
    C191    C    0.89825   0.58449   0.88975   1.000
    C192    C    0.37230   0.51279   0.94180   1.000
    C193    C    0.87232   0.51281   0.94184   1.000
    C194    C    0.36900   0.54049   0.02793   1.000
    C195    C    0.86901   0.54048   0.02790   1.000
    C196    C    0.43541   0.23829   0.59490   1.000
    C197    C    0.93538   0.23828   0.59497   1.000
    C198    C    0.07045   0.37391   0.72002   1.000
    C199    C    0.57075   0.37357   0.71991   1.000
    C200    C    0.49187   0.24706   0.55419   1.000
    C201    C    0.99185   0.24713   0.55422   1.000
    C202    C    0.48685   0.26101   0.46592   1.000
    C203    C    0.98686   0.26104   0.46593   1.000
    C204    C    0.99670   0.06000   0.30368   1.000
    C205    C    0.49670   0.06000   0.30367   1.000
    C206    C    0.43679   0.03924   0.32613   1.000
    C207    C    0.93680   0.03923   0.32612   1.000
    C208    C    0.43654   0.01277   0.41358   1.000
    C209    C    0.93653   0.01276   0.41357   1.000
    C210    C    0.36368   0.28171   0.22370   1.000
    C211    C    0.86368   0.28160   0.22377   1.000
    C212    C    0.30756   0.27757   0.18370   1.000
    C213    C    0.80756   0.27751   0.18300   1.000
    C214    C    0.27095   0.20555   0.22156   1.000
    C215    C    0.77094   0.20549   0.22154   1.000
    C216    C    0.21434   0.19670   0.18009   1.000
    C217    C    0.71433   0.19668   0.18008   1.000
    C218    C    0.22117   0.18085   0.09203   1.000
    C219    C    0.72116   0.18084   0.09202   1.000
    C220    C    0.41079   0.96694   0.27491   1.000
    C221    C    0.91081   0.96693   0.27490   1.000
    C222    C    0.35225   0.94154   0.30262   1.000
    C223    C    0.85225   0.94154   0.30259   1.000
    C224    C    0.32589   0.86665   0.25528   1.000
    C225    C    0.82589   0.86668   0.25523   1.000
    C226    C    0.35200   0.91482   0.38988   1.000
    C227    C    0.85200   0.91481   0.38985   1.000
    C228    C    0.37765   0.98692   0.44100   1.000
    C229    C    0.87764   0.98690   0.44147   1.000
    C230    C    0.38101   0.95959   0.52767   1.000
    C231    C    0.88100   0.95957   0.52765   1.000
    C232    C    0.31471   0.26170   0.09490   1.000
    C233    C    0.81470   0.26167   0.09488   1.000
    C234    C    0.17994   0.12580   0.22078   1.000
    C235    C    0.67992   0.12578   0.22077   1.000
    C236    C    0.25823   0.25250   0.05421   1.000
    C237    C    0.75822   0.25248   0.05420   1.000
    C238    C    0.26318   0.23866   0.96593   1.000
    C239    C    0.76317   0.23866   0.96592   1.000
    C240    C    0.24669   0.56006   0.19606   1.000
    C241    C    0.74674   0.56005   0.19604   1.000
    C242    C    0.18683   0.53959   0.17334   1.000
    C243    C    0.68688   0.53956   0.17331   1.000
    C244    C    0.18661   0.51269   0.08607   1.000
    C245    C    0.68664   0.51269   0.08600   1.000
    C246    C    0.11362   0.78144   0.27617   1.000
    C247    C    0.61357   0.78139   0.27615   1.000
    C248    C    0.05747   0.77745   0.31616   1.000
    C249    C    0.55741   0.77743   0.31614   1.000
    C250    C    0.02074   0.70549   0.27864   1.000
    C251    C    0.52062   0.70551   0.27860   1.000
    C252    C    0.46401   0.69717   0.32020   1.000
    C253    C    0.96413   0.69701   0.32014   1.000
    C254    C    0.47082   0.68154   0.40832   1.000
    C255    C    0.97092   0.68140   0.40827   1.000
    C256    C    0.16064   0.46770   0.22497   1.000
    C257    C    0.66069   0.46767   0.22493   1.000
    C258    C    0.10206   0.44260   0.19737   1.000
    C259    C    0.60209   0.44262   0.19735   1.000
    C260    C    0.07565   0.36804   0.24520   1.000
    C261    C    0.57565   0.36808   0.24524   1.000
    C262    C    0.10175   0.41553   0.11024   1.000
    C263    C    0.60175   0.41557   0.11021   1.000
    C264    C    0.12768   0.48720   0.05815   1.000
    C265    C    0.62770   0.48723   0.05812   1.000
    C266    C    0.13099   0.45953   0.97209   1.000
    C267    C    0.63101   0.45952   0.97206   1.000
    C268    C    0.06462   0.76174   0.40503   1.000
    C269    C    0.56458   0.76173   0.40501   1.000
    C270    C    0.42928   0.62638   0.28008   1.000
    C271    C    0.92961   0.62603   0.27996   1.000
    C272    C    0.00815   0.75287   0.44577   1.000
    C273    C    0.50813   0.75293   0.44580   1.000
    C274    C    0.01314   0.73896   0.53406   1.000
    C275    C    0.51314   0.73898   0.53408   1.000
    C276    C    0.50331   0.94000   0.69633   1.000
    C277    C    0.00000   0.94000   0.69632   1.000
    C278    C    0.06320   0.96078   0.67388   1.000
    C279    C    0.56321   0.96077   0.67387   1.000
    C280    C    0.06347   0.98725   0.58643   1.000
    C281    C    0.56346   0.98724   0.58642   1.000
    C282    C    0.13631   0.71838   0.77624   1.000
    C283    C    0.63631   0.71828   0.77622   1.000
    C284    C    0.19243   0.72248   0.81631   1.000
    C285    C    0.69243   0.72243   0.81630   1.000
    C286    C    0.22906   0.79451   0.77846   1.000
    C287    C    0.72904   0.79446   0.77844   1.000
    C288    C    0.28566   0.80332   0.81992   1.000
    C289    C    0.78565   0.80330   0.81991   1.000
    C290    C    0.27884   0.81917   0.90798   1.000
    C291    C    0.77882   0.81916   0.90797   1.000
    C292    C    0.08919   0.03308   0.72510   1.000
    C293    C    0.58920   0.03307   0.72509   1.000
    C294    C    0.14774   0.05847   0.69741   1.000
    C295    C    0.64775   0.05848   0.69738   1.000
    C296    C    0.17411   0.13334   0.74477   1.000
    C297    C    0.67411   0.13336   0.74470   1.000
    C298    C    0.14799   0.08520   0.61015   1.000
    C299    C    0.64799   0.08519   0.61012   1.000
    C300    C    0.12235   0.01311   0.55853   1.000
    C301    C    0.62235   0.01310   0.55851   1.000
    C302    C    0.11900   0.04044   0.47235   1.000
    C303    C    0.61899   0.04042   0.47233   1.000
    C304    C    0.18530   0.73833   0.90512   1.000
    C305    C    0.68528   0.73831   0.90510   1.000
    C306    C    0.32007   0.87422   0.77922   1.000
    C307    C    0.82006   0.87420   0.77921   1.000
    C308    C    0.24178   0.74752   0.94580   1.000
    C309    C    0.74176   0.74751   0.94570   1.000
    C310    C    0.23683   0.76135   0.03408   1.000
    C311    C    0.73681   0.76135   0.03407   1.000
    O312    O    0.23621   0.35973   0.79986   1.000
    O313    O    0.73622   0.35974   0.79986   1.000
    O314    O    0.36141   0.28828   0.73670   1.000
    O315    O    0.86137   0.28824   0.73670   1.000
    O316    O    0.36379   0.14513   0.74608   1.000
    O317    O    0.86376   0.14509   0.74608   1.000
    O318    O    0.22224   0.50379   0.79350   1.000
    O319    O    0.72230   0.50381   0.79351   1.000
    O320    O    0.39142   0.68266   0.72005   1.000
    O321    O    0.89142   0.68267   0.72003   1.000
    O322    O    0.47700   0.63800   0.75673   1.000
    O323    O    0.97700   0.63810   0.75675   1.000
    O324    O    0.35417   0.61834   0.04027   1.000
    O325    O    0.85418   0.61832   0.04028   1.000
    O326    O    0.37930   0.48272   0.07889   1.000
    O327    O    0.87932   0.48266   0.07882   1.000
    O328    O    0.08352   0.36319   0.79315   1.000
    O329    O    0.58343   0.36314   0.79322   1.000
    O330    O    0.08430   0.44345   0.68437   1.000
    O331    O    0.58517   0.44268   0.68400   1.000
    O332    O    0.03051   0.28187   0.42651   1.000
    O333    O    0.53050   0.28186   0.42648   1.000
    O334    O    0.43962   0.25192   0.43327   1.000
    O335    O    0.93963   0.25192   0.43327   1.000
    O336    O    0.01369   0.14029   0.29970   1.000
    O337    O    0.51369   0.14029   0.29974   1.000
    O338    O    0.38883   0.21210   0.23658   1.000
    O339    O    0.88882   0.21199   0.23657   1.000
    O340    O    0.38620   0.35515   0.24616   1.000
    O341    O    0.88620   0.35504   0.24616   1.000
    O342    O    0.02783   0.99628   0.29339   1.000
    O343    O    0.52782   0.99629   0.29339   1.000
    O344    O    0.35883   0.81709   0.21940   1.000
    O345    O    0.85884   0.81716   0.21932   1.000
    O346    O    0.27333   0.85904   0.25890   1.000
    O347    O    0.77333   0.85903   0.25891   1.000
    O348    O    0.39587   0.88184   0.54050   1.000
    O349    O    0.89586   0.88182   0.54040   1.000
    O350    O    0.37073   0.01766   0.57821   1.000
    O351    O    0.87072   0.01765   0.57819   1.000
    O352    O    0.16647   0.13707   0.29360   1.000
    O353    O    0.66646   0.13706   0.29300   1.000
    O354    O    0.16663   0.05566   0.18589   1.000
    O355    O    0.66663   0.05564   0.18588   1.000
    O356    O    0.21952   0.21785   0.92656   1.000
    O357    O    0.71951   0.21784   0.92655   1.000
    O358    O    0.31038   0.24795   0.93321   1.000
    O359    O    0.81037   0.24795   0.93321   1.000
    O360    O    0.26379   0.64026   0.20013   1.000
    O361    O    0.76380   0.64027   0.20014   1.000
    O362    O    0.13864   0.71177   0.26330   1.000
    O363    O    0.63859   0.71173   0.26328   1.000
    O364    O    0.13625   0.85492   0.25390   1.000
    O365    O    0.63622   0.85487   0.25392   1.000
    O366    O    0.27770   0.49619   0.20649   1.000
    O367    O    0.77777   0.49621   0.20650   1.000
    O368    O    0.10859   0.31735   0.27998   1.000
    O369    O    0.60858   0.31736   0.27995   1.000
    O370    O    0.02300   0.36190   0.24324   1.000
    O371    O    0.52300   0.36201   0.24327   1.000
    O372    O    0.14582   0.38168   0.95972   1.000
    O373    O    0.64583   0.38166   0.95973   1.000
    O374    O    0.12069   0.51734   0.92110   1.000
    O375    O    0.62070   0.51728   0.92109   1.000
    O376    O    0.41656   0.63685   0.20678   1.000
    O377    O    0.91646   0.63680   0.20686   1.000
    O378    O    0.41491   0.55723   0.31596   1.000
    O379    O    0.91589   0.55640   0.31555   1.000
    O380    O    0.46950   0.71814   0.57351   1.000
    O381    O    0.96949   0.71813   0.57348   1.000
    O382    O    0.06037   0.74807   0.56672   1.000
    O383    O    0.56037   0.74808   0.56672   1.000
    O384    O    0.48631   0.85971   0.70026   1.000
    O385    O    0.98632   0.85971   0.70025   1.000
    O386    O    0.11118   0.78800   0.76342   1.000
    O387    O    0.61117   0.78788   0.76341   1.000
    O388    O    0.11380   0.64494   0.75384   1.000
    O389    O    0.61380   0.64483   0.75384   1.000
    O390    O    0.47217   0.00000   0.70661   1.000
    O391    O    0.97217   0.00000   0.70661   1.000
    O392    O    0.14116   0.18288   0.78066   1.000
    O393    O    0.64117   0.18294   0.78059   1.000
    O394    O    0.22667   0.14095   0.74112   1.000
    O395    O    0.72667   0.14095   0.74110   1.000
    O396    O    0.10414   0.11819   0.45951   1.000
    O397    O    0.60413   0.11817   0.45900   1.000
    O398    O    0.12928   0.98235   0.42182   1.000
    O399    O    0.62927   0.98234   0.42179   1.000
    O400    O    0.33354   0.86293   0.70640   1.000
    O401    O    0.83353   0.86292   0.70639   1.000
    O402    O    0.33338   0.94435   0.81411   1.000
    O403    O    0.83337   0.94434   0.81411   1.000
    O404    O    0.28049   0.78216   0.07345   1.000
    O405    O    0.78048   0.78216   0.07340   1.000
    O406    O    0.18963   0.75205   0.06680   1.000
    O407    O    0.68962   0.75205   0.06600   1.000
loop_
    _geom_bond_atom_site_label_1
    _geom_bond_atom_site_label_2
    _geom_bond_distance
    _geom_bond_site_symmetry_2
    _ccdc_geom_bond_type
    C195   O325      1.27797      .   S
    C195   O327      1.27152      .   S
    C195   C193      1.53063  1_554   S
    C194   O324      1.27800      .   S
    C194   O326      1.27150      .   S
    C194   C192      1.53190  1_554   S
    C311   O407      1.26781      .   S
    C311   O405      1.28266      .   S
    C311   C309      1.52659  1_554   S
    C310   O406      1.27372      .   S
    C310   O404      1.28299      .   S
    C310   C308      1.52507  1_554   S
    O324   Cd12      2.21228      .   S
    O325   Cd13      2.21266      .   S
    H99    C245      1.09921      .   S
    H98    C244      1.09950      .   S
    C237   H95       1.10738      .   S
    C237   C219      1.53950      .   S
    C237   C233      1.53362      .   S
    C237   C239      1.52508  1_554   S
    C236   H94       1.10751      .   S
    C236   C218      1.53948      .   S
    C236   C232      1.53366      .   S
    C236   C238      1.52509  1_554   S
    C265   H125      1.10111      .   S
    C265   C245      1.54092      .   S
    C265   C263      1.53333      .   S
    C265   C267      1.53080  1_554   S
    C264   H124      1.10112      .   S
    C264   C244      1.54103      .   S
    C264   C262      1.53333      .   S
    C264   C266      1.53066  1_554   S
    H77    C219      1.09699      .   S
    H76    C218      1.09699      .   S
    O407   Cd15      2.29333      .   S
    O406   Cd14      2.28020      .   S
    H90    C232      1.09821      .   S
    H91    C233      1.09815      .   S
    O405   Cd13      2.32280      .   S
    O404   Cd12      2.32259      .   S
    H101   C245      1.10137      .   S
    H100   C244      1.10144      .   S
    O327   Cd11      2.23999      .   S
    O326   Cd10      2.24083      .   S
    H75    C219      1.10136      .   S
    H74    C218      1.10138      .   S
    C245   C243      1.54494      .   S
    C244   C242      1.54440      .   S
    H93    C233      1.10111      .   S
    H92    C232      1.10111      .   S
    H123   C263      1.09935      .   S
    H122   C262      1.09933      .   S
    C219   C217      1.53058      .   S
    C218   C216      1.53060      .   S
    C233   C213      1.53244      .   S
    C232   C212      1.54392      .   S
    H121   C263      1.10124      .   S
    H120   C262      1.10126      .   S
    C263   C259      1.54289      .   S
    C262   C258      1.54280      .   S
    Cd13   O361      2.32763      .   S
    Cd13   O377      2.31587      .   S
    Cd13   O345      2.20633      .   S
    Cd12   O360      2.32785      .   S
    Cd12   O376      2.31645      .   S
    Cd12   O344      2.20653      .   S
    C243   H97       1.09813      .   S
    C243   C241      1.52139      .   S
    C243   C257      1.53364      .   S
    C242   H96       1.09811      .   S
    C242   C240      1.52129      .   S
    C242   C256      1.53368      .   S
    C217   H73       1.10452      .   S
    C217   C235      1.51800      .   S
    C217   C215      1.54204      .   S
    C216   H72       1.10469      .   S
    C216   C234      1.51808      .   S
    C216   C214      1.54204      .   S
    C213   H67       1.10284      .   S
    C213   C215      1.54287      .   S
    C213   C211      1.52335      .   S
    C212   H66       1.10100      .   S
    C212   C214      1.53794      .   S
    C212   C210      1.51747      .   S
    O355   C235      1.26563      .   S
    O355   Cd17      2.31237  1_545   S
    O354   C234      1.26558      .   S
    O354   Cd16      2.31248  1_545   S
    Cd14   O346      2.21692      .   S
    Cd14   O362      2.32603      .   S
    Cd15   O347      2.21734      .   S
    Cd15   O363      2.32645      .   S
    C241   O361      1.29105      .   S
    C241   O367      1.26573      .   S
    C240   O360      1.29101      .   S
    C240   O366      1.26570      .   S
    C259   H119      1.10285      .   S
    C259   C257      1.53029      .   S
    C259   C261      1.53021      .   S
    C258   H118      1.10283      .   S
    C258   C256      1.53030      .   S
    C258   C260      1.52970      .   S
    O366   Cd10      2.24873      .   S
    O367   Cd11      2.25022      .   S
    O376   C270      1.29739      .   S
    O377   C271      1.29733      .   S
    Cd11   O341      2.24386      .   S
    Cd11   O379      2.31869      .   S
    Cd10   O340      2.24421      .   S
    Cd10   O378      2.31791      .   S
    H81    C221      1.09958      .   S
    H80    C220      1.09964      .   S
    H106   C250      1.09858      .   S
    H107   C251      1.09772      .   S
    H69    C215      1.10138      .   S
    H68    C214      1.10137      .   S
    O345   C225      1.27543      .   S
    O344   C224      1.27548      .   S
    C235   O353      1.28669      .   S
    C234   O352      1.29634      .   S
    C215   H71       1.09859      .   S
    C214   H70       1.09866      .   S
    H114   C256      1.09856      .   S
    H115   C257      1.09851      .   S
    C210   O338      1.26579      .   S
    C210   O340      1.29727      .   S
    C211   O339      1.26554      .   S
    C211   O341      1.29689      .   S
    C257   H117      1.09902      .   S
    C256   H116      1.09978      .   S
    O339   Cd9       2.32659      .   S
    O338   Cd8       2.32599      .   S
    O370   C260      1.27333      .   S
    O370   Cd9       2.21690  1_455   S
    O371   C261      1.27339      .   S
    O371   Cd8       2.21715      .   S
    C260   O368      1.27619      .   S
    C261   O369      1.27573      .   S
    O364   C246      1.29696      .   S
    O364   Cd16      2.24524      .   S
    O365   C247      1.29697      .   S
    O365   Cd17      2.24518      .   S
    C225   O347      1.27355      .   S
    C225   C223      1.53031      .   S
    C224   O346      1.27349      .   S
    C224   C222      1.53036      .   S
    O363   C247      1.26555      .   S
    O362   C246      1.26555      .   S
    C221   H79       1.09854      .   S
    C221   C223      1.53078      .   S
    C221   C207      1.53425  1_565   S
    C220   H78       1.09854      .   S
    C220   C222      1.53078      .   S
    C220   C206      1.53432  1_565   S
    C247   C249      1.51810      .   S
    C246   C248      1.51798      .   S
    C251   H105      1.10145      .   S
    C251   C249      1.53828      .   S
    C251   C252      1.54262      .   S
    C250   H104      1.10136      .   S
    C250   C248      1.53771      .   S
    C250   C253      1.54198  1_455   S
    O369   Cd7       2.20757      .   S
    C271   O379      1.26541      .   S
    C271   C253      1.51786      .   S
    O368   Cd6       2.20744      .   S
    C270   O378      1.26545      .   S
    C270   C252      1.51810      .   S
    Cd17   O343      2.25095      .   S
    Cd17   O399      2.23691      .   S
    Cd16   O342      2.25097      .   S
    Cd16   O398      2.23710      .   S
    O353   Cd7       2.31721      .   S
    O343   C205      1.26574  1_565   S
    O342   C204      1.26576  1_465   S
    O352   Cd6       2.31289      .   S
    H83    C223      1.10299      .   S
    H82    C222      1.10298      .   S
    O336   C204      1.29127  1_455   S
    O336   Cd6       2.32822      .   S
    O337   C205      1.29123      .   S
    O337   Cd7       2.32792      .   S
    C223   C227      1.54229      .   S
    C222   C226      1.54221      .   S
    C205   C206      1.52179      .   S
    C204   C207      1.52165      .   S
    Cd8    O334      2.27896      .   S
    Cd9    O335      2.27859      .   S
    H103   C249      1.10126      .   S
    H102   C248      1.10127      .   S
    H109   C253      1.10470      .   S
    H108   C252      1.10478      .   S
    C249   C269      1.54393      .   S
    C248   C268      1.54389      .   S
    H61    C207      1.09808      .   S
    H60    C206      1.09809      .   S
    C253   C255      1.53026      .   S
    C252   C254      1.53020      .   S
    C207   C209      1.54434      .   S
    C206   C208      1.54436      .   S
    Cd7    O333      2.32101      .   S
    Cd7    O397      2.20657      .   S
    Cd6    O332      2.32099      .   S
    Cd6    O396      2.21314      .   S
    C227   H85       1.10128      .   S
    C227   H87       1.09922      .   S
    C227   C229      1.53260      .   S
    C226   H84       1.10128      .   S
    C226   H86       1.09924      .   S
    C226   C228      1.52786      .   S
    C269   H129      1.10111      .   S
    C269   H127      1.09818      .   S
    C269   C273      1.53347      .   S
    C268   H128      1.10112      .   S
    C268   H126      1.09821      .   S
    C268   C272      1.53346      .   S
    C255   H111      1.10134      .   S
    C255   H113      1.09698      .   S
    C255   C272      1.53912  1_655   S
    C254   H110      1.10140      .   S
    C254   H112      1.09694      .   S
    C254   C273      1.53918      .   S
    C209   H65       1.10148  1_545   S
    C209   C229      1.54099  1_545   S
    C209   H63       1.09950      .   S
    C208   H64       1.10148  1_545   S
    C208   C228      1.53840  1_545   S
    C208   H62       1.09951      .   S
    O399   C303      1.27184  1_565   S
    O398   C302      1.27174  1_565   S
    O333   C202      1.28305      .   S
    O332   C203      1.28279  1_455   S
    O335   C203      1.27371      .   S
    O334   C202      1.27369      .   S
    H89    C229      1.10110  1_545   S
    H88    C228      1.10082  1_545   S
    H131   C272      1.10743  1_655   S
    H130   C273      1.10747      .   S
    C228   C230      1.53792      .   S
    C229   C231      1.52990      .   S
    C272   C274      1.52480      .   S
    C273   C275      1.52477      .   S
    O397   C303      1.27896      .   S
    O396   C302      1.27751      .   S
    C202   C200      1.52460      .   S
    C203   C201      1.52479      .   S
    C303   C301      1.52987      .   S
    C302   C300      1.52988      .   S
    C231   O349      1.27727      .   S
    C231   O351      1.27184  1_565   S
    C230   O348      1.27753      .   S
    C230   O350      1.27180  1_565   S
    C274   O382      1.27372      .   S
    C274   O381      1.28283  1_455   S
    C275   O383      1.27363      .   S
    C275   O380      1.28292      .   S
    O349   Cd19      2.21433      .   S
    O348   Cd18      2.21321      .   S
    H135   C281      1.09949      .   S
    H134   C280      1.09949      .   S
    C200   H59       1.10737      .   S
    C200   C183      1.53917      .   S
    C200   C196      1.53284      .   S
    C201   H58       1.10736  1_655   S
    C201   C182      1.53912  1_655   S
    C201   C197      1.53346      .   S
    C301   H161      1.10110  1_545   S
    C301   C281      1.54097  1_545   S
    C301   C299      1.53263      .   S
    C300   H160      1.10108  1_545   S
    C300   C280      1.54097  1_545   S
    C300   C298      1.53262      .   S
    H41    C183      1.09690      .   S
    H40    C182      1.09697      .   S
    O382   Cd20      2.27870      .   S
    O383   Cd21      2.27892      .   S
    H55    C197      1.09823      .   S
    H54    C196      1.09763      .   S
    O381   Cd19      2.32111      .   S
    O380   Cd18      2.32104      .   S
    O351   Cd5       2.24864      .   S
    O350   Cd4       2.24834      .   S
    H136   C280      1.10149  1_545   S
    H137   C281      1.10145  1_545   S
    H39    C183      1.10139      .   S
    H38    C182      1.10136      .   S
    H57    C197      1.10113      .   S
    H56    C196      1.10092      .   S
    C281   C279      1.54437      .   S
    C280   C278      1.54434      .   S
    H159   C299      1.09946      .   S
    H158   C298      1.09925      .   S
    C183   C181      1.53023      .   S
    C182   C180      1.53030      .   S
    C196   C176      1.54530      .   S
    C197   C177      1.54391      .   S
    H157   C299      1.10128      .   S
    H156   C298      1.10127      .   S
    C299   C295      1.54221      .   S
    C298   C294      1.54229      .   S
    Cd19   O385      2.32783      .   S
    Cd19   O401      2.31277      .   S
    Cd19   O321      2.20742      .   S
    Cd18   O384      2.32793      .   S
    Cd18   O400      2.31254      .   S
    Cd18   O320      2.20751      .   S
    C279   H133      1.09804      .   S
    C279   C276      1.52177      .   S
    C279   C293      1.53432  1_565   S
    C278   H132      1.09811      .   S
    C278   C277      1.59724      .   S
    C278   C292      1.53428  1_565   S
    C181   H37       1.10461      .   S
    C181   C199      1.51813      .   S
    C181   C178      1.54221      .   S
    C180   H36       1.10456      .   S
    C180   C198      1.51794      .   S
    C180   C179      1.54200  1_455   S
    C177   H31       1.10124      .   S
    C177   C179      1.53774      .   S
    C177   C175      1.51802      .   S
    C176   H30       1.10128      .   S
    C176   C178      1.53795      .   S
    C176   C174      1.51773      .   S
    O331   C199      1.26548      .   S
    O331   Cd23      2.31762      .   S
    O330   C198      1.26550      .   S
    O330   Cd22      2.31843      .   S
    Cd21   O322      2.21718      .   S
    Cd21   O387      2.32582      .   S
    Cd20   O323      2.21684  1_455   S
    Cd20   O386      2.32635      .   S
    C277   O385      1.27046  1_455   S
    C277   O391      1.17162  1_465   S
    C276   O384      1.29124      .   S
    C276   O390      1.22103  1_565   S
    C295   H155      1.13822      .   S
    C295   C293      1.53081      .   S
    C295   C297      1.53016      .   S
    C294   H154      1.13757      .   S
    C294   C292      1.53077      .   S
    C294   C296      1.53034      .   S
    O401   C307      1.29637      .   S
    O400   C306      1.29638      .   S
    O390   Cd4       2.24787      .   S
    O391   Cd5       2.24794      .   S
    Cd5    O317      2.36250      .   S
    Cd5    O403      2.26478  1_545   S
    Cd4    O316      2.36301      .   S
    Cd4    O402      2.26463  1_545   S
    H45    C185      1.09962      .   S
    H44    C184      1.09966      .   S
    H143   C287      1.09865      .   S
    H142   C286      1.09857      .   S
    H32    C178      1.10139      .   S
    H33    C179      1.10136      .   S
    C199   O329      1.29726      .   S
    C198   O328      1.29723      .   S
    O321   C189      1.27569      .   S
    O320   C188      1.27573      .   S
    C178   H34       1.09855      .   S
    C179   H35       1.09857      .   S
    H150   C292      1.09854      .   S
    H151   C293      1.09854      .   S
    C174   O314      1.26564      .   S
    C174   O316      1.29723      .   S
    C175   O315      1.26552      .   S
    C175   O317      1.29688      .   S
    C293   H153      1.16563      .   S
    C292   H152      1.16569      .   S
    O314   Cd2       2.32660      .   S
    O315   Cd3       2.32609      .   S
    O395   C297      1.27345      .   S
    O395   Cd3       2.21715      .   S
    O394   C296      1.27350      .   S
    O394   Cd2       2.21730      .   S
    C297   O393      1.27573      .   S
    C296   O392      1.27547      .   S
    O389   C283      1.29685      .   S
    O389   Cd23      2.24413      .   S
    O388   C282      1.29687      .   S
    O388   Cd22      2.24391      .   S
    C189   O323      1.27335      .   S
    C189   C187      1.53015      .   S
    C188   O322      1.27341      .   S
    C188   C186      1.53018      .   S
    O387   C283      1.26558      .   S
    O386   C282      1.26555      .   S
    C185   H43       1.09852      .   S
    C185   C187      1.53028      .   S
    C185   C171      1.53377      .   S
    C184   H42       1.09850      .   S
    C184   C186      1.53027      .   S
    C184   C170      1.53366      .   S
    C283   C285      1.51806      .   S
    C282   C284      1.51800      .   S
    C287   H141      1.10137      .   S
    C287   C285      1.53793      .   S
    C287   C289      1.54206      .   S
    C286   H140      1.10137      .   S
    C286   C284      1.53790      .   S
    C286   C288      1.54202      .   S
    C307   O403      1.26566      .   S
    C307   C289      1.51812      .   S
    C306   O402      1.26560      .   S
    C306   C288      1.51803      .   S
    O393   Cd1       2.20652      .   S
    O392   Cd0       2.20628      .   S
    Cd23   O319      2.24863      .   S
    Cd23   O375      2.24121      .   S
    Cd22   O318      2.24989      .   S
    Cd22   O374      2.23904      .   S
    O328   Cd0       2.31598      .   S
    O329   Cd1       2.31656      .   S
    O318   C168      1.26570      .   S
    O319   C169      1.26569      .   S
    H46    C186      1.10284      .   S
    H47    C187      1.10283      .   S
    O313   C169      1.29101      .   S
    O313   Cd1       2.32799      .   S
    O312   C168      1.29104      .   S
    O312   Cd0       2.32765      .   S
    C187   C191      1.54282      .   S
    C186   C190      1.54292      .   S
    C169   C171      1.52129      .   S
    C168   C170      1.52138      .   S
    Cd2    O358      2.28038      .   S
    Cd3    O359      2.28030      .   S
    H138   C284      1.10123      .   S
    H139   C285      1.10121      .   S
    H145   C289      1.10470      .   S
    H144   C288      1.10467      .   S
    C285   C305      1.54393      .   S
    C284   C304      1.54398      .   S
    C289   C291      1.53062      .   S
    C288   C290      1.53058      .   S
    H25    C171      1.09810      .   S
    H24    C170      1.09809      .   S
    C171   C173      1.54426      .   S
    C170   C172      1.54349      .   S
    Cd0    O356      2.32250      .   S
    Cd0    O372      2.21255      .   S
    Cd1    O357      2.32254      .   S
    Cd1    O373      2.21210      .   S
    C191   H49       1.10125      .   S
    C191   H51       1.09938      .   S
    C191   C193      1.53332      .   S
    C190   H48       1.10124      .   S
    C190   H50       1.09938      .   S
    C190   C192      1.53264      .   S
    C305   H165      1.10114      .   S
    C305   H163      1.09819      .   S
    C305   C309      1.53300      .   S
    C304   H164      1.10111      .   S
    C304   H162      1.09814      .   S
    C304   C308      1.53364      .   S
    C291   H147      1.10134      .   S
    C291   H149      1.09692      .   S
    C291   C309      1.53883      .   S
    C290   H146      1.10139      .   S
    C290   H148      1.09699      .   S
    C290   C308      1.53949      .   S
    C172   H28       1.10142      .   S
    C172   C192      1.54100      .   S
    C172   H26       1.10007      .   S
    C173   H29       1.10144      .   S
    C173   C193      1.54103      .   S
    C173   H27       1.09949      .   S
    O375   C267      1.27151      .   S
    O374   C266      1.27224      .   S
    O357   C239      1.28299      .   S
    O356   C238      1.28300      .   S
    O358   C238      1.27370      .   S
    O359   C239      1.27367      .   S
    H53    C193      1.10111      .   S
    H52    C192      1.10107      .   S
    H167   C309      1.10736      .   S
    H166   C308      1.10750      .   S
    O372   C266      1.27797      .   S
    O373   C267      1.27802      .   S
    O312   Cd2       2.41136      .   S
    O313   Cd3       2.41114      .   S
    O316   Cd2       2.49348      .   S
    O317   Cd3       2.49366      .   S
    O328   Cd22      2.45203      .   S
    O329   Cd23      2.45308      .   S
    O336   Cd9       2.41434  1_455   S
    O337   Cd8       2.41430      .   S
    O340   Cd8       2.49242      .   S
    O341   Cd9       2.49143      .   S
    O352   Cd16      2.45984  1_545   S
    O353   Cd17      2.45999  1_545   S
    O360   Cd14      2.41117      .   S
    O361   Cd15      2.41144      .   S
    O364   Cd14      2.49353      .   S
    O365   Cd15      2.49351      .   S
    O376   Cd10      2.45292      .   S
    O377   Cd11      2.45169      .   S
    O384   Cd21      2.41423      .   S
    O385   Cd20      2.41422  1_655   S
    O388   Cd20      2.49160      .   S
    O389   Cd21      2.49264      .   S
    O400   Cd4       2.34983  1_565   S
    O401   Cd5       2.34995  1_565   S
