# CIF file generated by openbabel 2.4.90, see http://openbabel.sf.net
data_I
_chemical_name_common ''
_cell_length_a 14.826
_cell_length_b 21.759
_cell_length_c 12.748
_cell_angle_alpha 107.622
_cell_angle_beta 89.997
_cell_angle_gamma 90
_space_group_name_H-M_alt 'P 1'
_space_group_name_Hall 'P 1'
loop_
    _symmetry_equiv_pos_as_xyz
    x,y,z
loop_
    _atom_site_label
    _atom_site_type_symbol
    _atom_site_fract_x
    _atom_site_fract_y
    _atom_site_fract_z
    _atom_site_occupancy
    Mc0     Mc   0.13611   0.43785   0.06258   1.000
    Mc1     Mc   0.36411   0.06178   0.93763   1.000
    Mc2     Mc   0.13599   0.06185   0.93735   1.000
    Mc3     Mc   0.36421   0.43838   0.06221   1.000
    Ts4     Ts   0.25031   0.24995   0.99972   1.000
    Mc5     Mc   0.63578   0.43838   0.06221   1.000
    Mc6     Mc   0.63589   0.06178   0.93763   1.000
    Mc7     Mc   0.86401   0.06185   0.93735   1.000
    Mc8     Mc   0.86387   0.43785   0.06255   1.000
    Ts9     Ts   0.74968   0.24995   0.99982   1.000
    Mc10    Mc   0.36389   0.56212   0.93741   1.000
    Mc11    Mc   0.13579   0.56158   0.93775   1.000
    Mc12    Mc   0.13589   0.93818   0.06233   1.000
    Mc13    Mc   0.36400   0.93812   0.06261   1.000
    Ts14    Ts   0.24969   0.75002   0.00014   1.000
    Mc15    Mc   0.63612   0.56211   0.93740   1.000
    Mc16    Mc   0.86421   0.56158   0.93778   1.000
    Mc17    Mc   0.63598   0.93812   0.06261   1.000
    Mc18    Mc   0.86410   0.93818   0.06233   1.000
    Ts19    Ts   0.75031   0.75002   0.00014   1.000
