# CIF file generated by openbabel 2.4.90, see http://openbabel.sf.net
data_I
_chemical_name_common ''
_cell_length_a 14.826
_cell_length_b 21.759
_cell_length_c 12.748
_cell_angle_alpha 107.622
_cell_angle_beta 89.997
_cell_angle_gamma 90
_space_group_name_H-M_alt 'P 1'
_space_group_name_Hall 'P 1'
loop_
    _symmetry_equiv_pos_as_xyz
    x,y,z
loop_
    _atom_site_label
    _atom_site_type_symbol
    _atom_site_fract_x
    _atom_site_fract_y
    _atom_site_fract_z
    _atom_site_occupancy
    H0      H    0.00000   0.48541   0.75645   1.000
    H1      H    1.00000   0.98549   0.75560   1.000
    H2      H    0.49999   0.48596   0.75500   1.000
    H3      H    0.50000   0.98559   0.75630   1.000
    H4      H    0.00001   0.39994   0.57235   1.000
    H5      H    0.00001   0.89976   0.57180   1.000
    H6      H    0.50000   0.40012   0.57195   1.000
    H7      H    0.50000   0.89987   0.57250   1.000
    H8      H    0.00000   0.25785   0.74780   1.000
    H9      H    0.00001   0.75817   0.74829   1.000
    H10     H    0.50000   0.25873   0.74880   1.000
    H11     H    0.49999   0.75823   0.74885   1.000
    H12     H    0.00000   0.34940   0.92257   1.000
    H13     H    1.00000   0.84996   0.92268   1.000
    H14     H    0.49999   0.35063   0.92306   1.000
    H15     H    0.50000   0.85002   0.92331   1.000
    H16     H    0.00000   0.01438   0.24364   1.000
    H17     H    0.00001   0.51401   0.24430   1.000
    H18     H    0.50000   0.01448   0.24436   1.000
    H19     H    0.50000   0.51455   0.24353   1.000
    H20     H    0.00000   0.10010   0.42740   1.000
    H21     H    1.00000   0.59985   0.42803   1.000
    H22     H    0.49999   0.10021   0.42813   1.000
    H23     H    0.50000   0.60003   0.42763   1.000
    H24     H    0.00000   0.24174   0.25112   1.000
    H25     H    0.00000   0.74124   0.25116   1.000
    H26     H    0.50000   0.24180   0.25167   1.000
    H27     H    0.50000   0.74211   0.25217   1.000
    H28     H    0.00000   0.14996   0.07666   1.000
    H29     H    0.00001   0.64933   0.07691   1.000
    H30     H    0.50000   0.15001   0.07728   1.000
    H31     H    0.50000   0.65056   0.07740   1.000
    C32     C    0.25038   0.38907   0.04691   1.000
    C33     C    0.24990   0.88913   0.04711   1.000
    C34     C    0.74960   0.38907   0.04692   1.000
    C35     C    0.75009   0.88913   0.04711   1.000
    C36     C    0.25010   0.11083   0.95284   1.000
    C37     C    0.24962   0.61089   0.95306   1.000
    C38     C    0.74991   0.11083   0.95284   1.000
    C39     C    0.75039   0.61089   0.95300   1.000
    C40     C    0.00000   0.43425   0.74960   1.000
    C41     C    0.00004   0.93437   0.74907   1.000
    C42     C    0.50002   0.43486   0.74919   1.000
    C43     C    0.50000   0.93446   0.74974   1.000
    C44     C    0.00000   0.38683   0.64820   1.000
    C45     C    0.99997   0.88680   0.64790   1.000
    C46     C    0.49998   0.38723   0.64808   1.000
    C47     C    0.50000   0.88691   0.64856   1.000
    C48     C    0.00001   0.32144   0.64477   1.000
    C49     C    0.00004   0.82146   0.64474   1.000
    C50     C    0.50002   0.32191   0.64507   1.000
    C51     C    0.49999   0.82157   0.64500   1.000
    C52     C    0.00000   0.27150   0.54331   1.000
    C53     C    0.99999   0.77136   0.54344   1.000
    C54     C    0.49999   0.27177   0.54382   1.000
    C55     C    0.50000   0.77152   0.54407   1.000
    C56     C    0.00000   0.30751   0.74579   1.000
    C57     C    0.99997   0.80777   0.74597   1.000
    C58     C    0.49998   0.30830   0.74637   1.000
    C59     C    0.50000   0.80784   0.74658   1.000
    C60     C    0.00000   0.35820   0.84294   1.000
    C61     C    0.00000   0.85861   0.84293   1.000
    C62     C    0.50002   0.35920   0.84325   1.000
    C63     C    0.49999   0.85866   0.84356   1.000
    C64     C    0.99999   0.06551   0.25022   1.000
    C65     C    0.99996   0.56511   0.25079   1.000
    C66     C    0.49999   0.06560   0.25089   1.000
    C67     C    0.50001   0.56571   0.25038   1.000
    C68     C    0.00001   0.11306   0.35140   1.000
    C69     C    0.00004   0.61274   0.35100   1.000
    C70     C    0.50000   0.11317   0.35206   1.000
    C71     C    0.49999   0.61313   0.35170   1.000
    C72     C    0.99999   0.17840   0.35457   1.000
    C73     C    0.99996   0.67806   0.35490   1.000
    C74     C    0.49999   0.17851   0.35522   1.000
    C75     C    0.50001   0.67853   0.35520   1.000
    C76     C    1.00000   0.22845   0.45590   1.000
    C77     C    0.00002   0.72820   0.45615   1.000
    C78     C    0.50000   0.22861   0.45652   1.000
    C79     C    0.49999   0.72847   0.45666   1.000
    C80     C    0.00001   0.19214   0.25339   1.000
    C81     C    0.00004   0.69166   0.25360   1.000
    C82     C    0.50000   0.19220   0.25399   1.000
    C83     C    0.49999   0.69245   0.25418   1.000
    C84     C    0.99999   0.14131   0.15641   1.000
    C85     C    0.99996   0.64076   0.15672   1.000
    C86     C    0.49999   0.14136   0.15703   1.000
    C87     C    0.50001   0.64176   0.15703   1.000
    N88     N    0.00000   0.42048   0.84572   1.000
    N89     N    0.99998   0.92084   0.84539   1.000
    N90     N    0.49998   0.42141   0.84550   1.000
    N91     N    0.50000   0.92088   0.84602   1.000
    N92     N    0.00001   0.07909   0.15394   1.000
    N93     N    0.00003   0.57856   0.15440   1.000
    N94     N    0.50000   0.07913   0.15457   1.000
    N95     N    0.49999   0.57948   0.15426   1.000
loop_
    _geom_bond_atom_site_label_1
    _geom_bond_atom_site_label_2
    _geom_bond_distance
    _geom_bond_site_symmetry_2
    _ccdc_geom_bond_type
    H28    C84       1.08846  1_455   S
    H29    C85       1.08846  1_455   S
    H30    C86       1.08849      .   S
    H31    C87       1.08849      .   S
    N92    C84       1.34480  1_455   S
    N92    C64       1.34658  1_455   S
    N95    C87       1.34486      .   S
    N95    C67       1.34663      .   S
    N93    C85       1.34484  1_455   S
    N93    C65       1.34655  1_455   S
    N94    C86       1.34490      .   S
    N94    C66       1.34662      .   S
    C84    C80       1.38693  1_655   S
    C85    C81       1.38701  1_655   S
    C86    C82       1.38695      .   S
    C87    C83       1.38686      .   S
    H19    C67       1.08996      .   S
    H16    C64       1.08999  1_455   S
    H17    C65       1.08974  1_455   S
    H18    C66       1.09001      .   S
    C64    C68       1.38785  1_655   S
    C67    C71       1.38779      .   S
    C65    C69       1.38003  1_655   S
    C66    C70       1.38796      .   S
    H24    C80       1.08853      .   S
    H25    C81       1.08852      .   S
    H26    C82       1.08850      .   S
    H27    C83       1.08850      .   S
    C80    C72       1.40941  1_455   S
    C81    C73       1.40951  1_455   S
    C82    C74       1.40955      .   S
    C83    C75       1.40946      .   S
    C69    C73       1.40698  1_455   S
    C69    H21       1.09982  1_455   S
    C68    C72       1.41007  1_455   S
    C68    H20       1.08794      .   S
    C71    C75       1.41002      .   S
    C71    H23       1.08873      .   S
    C70    C74       1.41017      .   S
    C70    H22       1.08875      .   S
    C72    C76       1.41519      .   S
    C73    C77       1.41554  1_655   S
    C75    C79       1.41522      .   S
    C74    C78       1.41551      .   S
    C76    C52       1.21949  1_655   S
    C77    C53       1.21960  1_455   S
    C78    C54       1.21967      .   S
    C79    C55       1.21950      .   S
    C52    C48       1.41520      .   S
    C53    C49       1.41552  1_655   S
    C54    C50       1.41552      .   S
    C55    C51       1.41175      .   S
    H5     C45       1.08913  1_455   S
    H6     C46       1.08871      .   S
    H4     C44       1.08778      .   S
    H7     C47       1.08867      .   S
    C49    C45       1.41015  1_455   S
    C49    C57       1.40955  1_455   S
    C48    C44       1.41029      .   S
    C48    C56       1.40947      .   S
    C51    C47       1.40870      .   S
    C51    C59       1.41438      .   S
    C50    C46       1.41011      .   S
    C50    C58       1.40954      .   S
    C45    C41       1.38797  1_655   S
    C46    C42       1.38803      .   S
    C44    C40       1.38850      .   S
    C47    C43       1.38785      .   S
    C56    H8        1.08852      .   S
    C56    C60       1.38683      .   S
    C57    H9        1.08850  1_655   S
    C57    C61       1.38695  1_655   S
    C58    H10       1.08850      .   S
    C58    C62       1.38699      .   S
    C59    H11       1.08851      .   S
    C59    C63       1.38693      .   S
    C41    H1        1.08999  1_455   S
    C41    N89       1.34662  1_455   S
    C42    H2        1.09181      .   S
    C42    N90       1.34557      .   S
    C40    H0        1.08996      .   S
    C40    N88       1.34665      .   S
    C43    H3        1.09005      .   S
    C43    N91       1.34656      .   S
    C61    N89       1.34490  1_455   S
    C61    H13       1.08849  1_455   S
    C60    N88       1.34487      .   S
    C60    H12       1.08851      .   S
    C62    N90       1.34511      .   S
    C62    H14       1.08849      .   S
    C63    N91       1.34484      .   S
    C63    H15       1.08845      .   S
