# CIF file generated by openbabel 2.4.90, see http://openbabel.sf.net
data_I
_chemical_name_common ''
_cell_length_a 14.826
_cell_length_b 21.759
_cell_length_c 12.748
_cell_angle_alpha 107.622
_cell_angle_beta 89.997
_cell_angle_gamma 90
_space_group_name_H-M_alt 'P 1'
_space_group_name_Hall 'P 1'
loop_
    _symmetry_equiv_pos_as_xyz
    x,y,z
loop_
    _atom_site_label
    _atom_site_type_symbol
    _atom_site_fract_x
    _atom_site_fract_y
    _atom_site_fract_z
    _atom_site_occupancy
    Lv0     Lv   0.25038   0.38907   0.04691   1.000
    Lv1     Lv   0.25010   0.11083   0.95284   1.000
    Lv2     Lv   0.50000   0.75011   0.50021   1.000
    Lv3     Lv   0.00000   0.74973   0.49981   1.000
    Lv4     Lv   0.74991   0.11083   0.95284   1.000
    Lv5     Lv   0.74960   0.38907   0.04692   1.000
    Lv6     Lv   0.24990   0.88913   0.04711   1.000
    Lv7     Lv   0.24962   0.61089   0.95306   1.000
    Lv8     Lv   0.50000   0.25024   0.50008   1.000
    Lv9     Lv   0.00000   0.24986   0.49973   1.000
    Lv10    Lv   0.75009   0.88913   0.04711   1.000
    Lv11    Lv   0.75039   0.61089   0.95300   1.000
