# CIF file generated by openbabel 2.4.90, see http://openbabel.sf.net
data_I
_chemical_name_common ''
_cell_length_a 14.826
_cell_length_b 21.759
_cell_length_c 12.748
_cell_angle_alpha 107.622
_cell_angle_beta 89.997
_cell_angle_gamma 90
_space_group_name_H-M_alt 'P 1'
_space_group_name_Hall 'P 1'
loop_
    _symmetry_equiv_pos_as_xyz
    x,y,z
loop_
    _atom_site_label
    _atom_site_type_symbol
    _atom_site_fract_x
    _atom_site_fract_y
    _atom_site_fract_z
    _atom_site_occupancy
    H0      H    0.10518   0.30898   0.02146   1.000
    H1      H    0.10456   0.80906   0.02178   1.000
    H2      H    0.60438   0.30877   0.02090   1.000
    H3      H    0.60501   0.80883   0.02130   1.000
    H4      H    0.10501   0.19112   0.97864   1.000
    H5      H    0.10439   0.69119   0.97898   1.000
    H6      H    0.60456   0.19090   0.97816   1.000
    H7      H    0.60518   0.69098   0.97849   1.000
    H8      H    0.39544   0.19090   0.97818   1.000
    H9      H    0.39482   0.69098   0.97851   1.000
    H10     H    0.89499   0.19113   0.97866   1.000
    H11     H    0.89561   0.69119   0.97899   1.000
    H12     H    0.39561   0.30877   0.02000   1.000
    H13     H    0.39499   0.80884   0.02132   1.000
    H14     H    0.89481   0.30898   0.02148   1.000
    H15     H    0.89543   0.80906   0.02180   1.000
    C16     C    0.17062   0.42371   0.05741   1.000
    C17     C    0.17030   0.92394   0.05730   1.000
    C18     C    0.67008   0.42401   0.05715   1.000
    C19     C    0.67040   0.92388   0.05749   1.000
    C20     C    0.16936   0.28335   0.01164   1.000
    C21     C    0.16874   0.78342   0.01197   1.000
    C22     C    0.66863   0.28324   0.01139   1.000
    C23     C    0.66926   0.78330   0.01171   1.000
    C24     C    0.17041   0.07609   0.94246   1.000
    C25     C    0.17009   0.57596   0.94280   1.000
    C26     C    0.67030   0.07602   0.94265   1.000
    C27     C    0.67062   0.57625   0.94256   1.000
    C28     C    0.16927   0.21666   0.98825   1.000
    C29     C    0.16864   0.71673   0.98857   1.000
    C30     C    0.66873   0.21654   0.98798   1.000
    C31     C    0.66936   0.71662   0.98830   1.000
    C32     C    0.32971   0.07603   0.94265   1.000
    C33     C    0.32938   0.57625   0.94257   1.000
    C34     C    0.82959   0.07609   0.94246   1.000
    C35     C    0.82991   0.57596   0.94283   1.000
    C36     C    0.33126   0.21654   0.98800   1.000
    C37     C    0.33064   0.71662   0.98832   1.000
    C38     C    0.83073   0.21666   0.98825   1.000
    C39     C    0.83136   0.71673   0.98858   1.000
    C40     C    0.32991   0.42401   0.05715   1.000
    C41     C    0.32959   0.92388   0.05749   1.000
    C42     C    0.82937   0.42372   0.05740   1.000
    C43     C    0.82969   0.92394   0.05730   1.000
    C44     C    0.33136   0.28324   0.01139   1.000
    C45     C    0.33073   0.78330   0.01173   1.000
    C46     C    0.83063   0.28335   0.01166   1.000
    C47     C    0.83125   0.78342   0.01197   1.000
    C48     C    0.25040   0.31856   0.02350   1.000
    C49     C    0.24979   0.81862   0.02380   1.000
    C50     C    0.74958   0.31855   0.02352   1.000
    C51     C    0.75021   0.81862   0.02381   1.000
    C52     C    0.25022   0.18134   0.97615   1.000
    C53     C    0.24960   0.68141   0.97640   1.000
    C54     C    0.74978   0.18134   0.97615   1.000
    C55     C    0.75041   0.68141   0.97640   1.000
    N56     N    0.10160   0.45198   0.06774   1.000
    N57     N    0.10148   0.95242   0.06735   1.000
    N58     N    0.60147   0.45275   0.06726   1.000
    N59     N    0.60157   0.95236   0.06772   1.000
    N60     N    0.10158   0.04760   0.93223   1.000
    N61     N    0.10149   0.54721   0.93270   1.000
    N62     N    0.60148   0.04754   0.93260   1.000
    N63     N    0.60161   0.54798   0.93223   1.000
    N64     N    0.39852   0.04754   0.93260   1.000
    N65     N    0.39840   0.54798   0.93224   1.000
    N66     N    0.89843   0.04761   0.93223   1.000
    N67     N    0.89852   0.54721   0.93272   1.000
    N68     N    0.39851   0.45275   0.06727   1.000
    N69     N    0.39842   0.95236   0.06773   1.000
    N70     N    0.89838   0.45198   0.06770   1.000
    N71     N    0.89850   0.95243   0.06736   1.000
loop_
    _geom_bond_atom_site_label_1
    _geom_bond_atom_site_label_2
    _geom_bond_distance
    _geom_bond_site_symmetry_2
    _ccdc_geom_bond_type
    C22    H2        1.09093      .   S
    C22    C50       1.40818      .   S
    C22    C30       1.39032  1_554   S
    C44    H12       1.09149      .   S
    C44    C48       1.40821      .   S
    C44    C36       1.39032  1_554   S
    C20    H0        1.09084      .   S
    C20    C48       1.40833      .   S
    C20    C28       1.39011  1_554   S
    C46    H14       1.09083      .   S
    C46    C50       1.40833      .   S
    C46    C38       1.39009  1_554   S
    C23    H3        1.09086      .   S
    C23    C51       1.40819      .   S
    C23    C31       1.39009  1_554   S
    C45    H13       1.09085      .   S
    C45    C49       1.40819      .   S
    C45    C37       1.39011  1_554   S
    C21    H1        1.09086      .   S
    C21    C49       1.40829      .   S
    C21    C29       1.39033  1_554   S
    C47    H15       1.09085      .   S
    C47    C51       1.40828      .   S
    C47    C39       1.39032  1_554   S
    C18    N58       1.18046      .   S
    C40    N68       1.18045      .   S
    C17    N57       1.18043      .   S
    C43    N71       1.18042      .   S
    C42    N70       1.18049      .   S
    C16    N56       1.18049      .   S
    C19    N59       1.18048      .   S
    C41    N69       1.18048      .   S
    N63    C27       1.18048      .   S
    N66    C34       1.18047      .   S
    N60    C24       1.18047      .   S
    N65    C33       1.18047      .   S
    N64    C32       1.18041      .   S
    N62    C26       1.18042      .   S
    N61    C25       1.18046      .   S
    N67    C35       1.18046      .   S
    C52    C36       1.40829      .   S
    C52    C28       1.40819      .   S
    C54    C30       1.40828      .   S
    C54    C38       1.40819      .   S
    C53    C37       1.40828      .   S
    C53    C29       1.40815      .   S
    C55    C31       1.40830      .   S
    C55    C39       1.40817      .   S
    H6     C30       1.09086      .   S
    H8     C36       1.09085      .   S
    H7     C31       1.09084      .   S
    H9     C37       1.09083      .   S
    H4     C28       1.09085      .   S
    H10    C38       1.09086      .   S
    H5     C29       1.09088      .   S
    H11    C39       1.09087      .   S
