# CIF file generated by openbabel 2.4.90, see http://openbabel.sf.net
data_I
_chemical_name_common ''
_cell_length_a 14.826
_cell_length_b 21.759
_cell_length_c 12.748
_cell_angle_alpha 107.622
_cell_angle_beta 89.997
_cell_angle_gamma 90
_space_group_name_H-M_alt 'P 1'
_space_group_name_Hall 'P 1'
loop_
    _symmetry_equiv_pos_as_xyz
    x,y,z
loop_
    _atom_site_label
    _atom_site_type_symbol
    _atom_site_fract_x
    _atom_site_fract_y
    _atom_site_fract_z
    _atom_site_occupancy
    Zn0     Zn   0.00000   0.49917   0.00000   1.000
    Zn1     Zn   0.50000   0.99999   0.00021   1.000
    Zn2     Zn   0.50000   0.50080   0.99995   1.000
    Zn3     Zn   0.00000   0.00000   0.99970   1.000
    Ts4     Ts   0.03387   0.48344   0.02258   1.000
    Ts5     Ts   0.03383   0.51518   0.97757   1.000
    Ts6     Ts   0.96617   0.51518   0.97757   1.000
    Ts7     Ts   0.96613   0.48344   0.02257   1.000
    Ts8     Ts   0.00000   0.47294   0.94857   1.000
    Ts9     Ts   0.00001   0.52563   0.05147   1.000
    Ts10    Ts   0.53385   0.98411   0.02271   1.000
    Ts11    Ts   0.53382   0.01584   0.97767   1.000
    Ts12    Ts   0.46617   0.01584   0.97767   1.000
    Ts13    Ts   0.46614   0.98411   0.02272   1.000
    Ts14    Ts   0.50000   0.97362   0.94881   1.000
    Ts15    Ts   0.50000   0.02637   0.05166   1.000
    Ts16    Ts   0.53382   0.48478   0.02239   1.000
    Ts17    Ts   0.53387   0.51653   0.97738   1.000
    Ts18    Ts   0.46613   0.51653   0.97738   1.000
    Ts19    Ts   0.46617   0.48479   0.02239   1.000
    Ts20    Ts   0.49999   0.47434   0.94847   1.000
    Ts21    Ts   0.50000   0.52703   0.05139   1.000
    Ts22    Ts   0.03383   0.98414   0.02225   1.000
    Ts23    Ts   0.03386   0.01587   0.97721   1.000
    Ts24    Ts   0.96614   0.01587   0.97721   1.000
    Ts25    Ts   0.96617   0.98414   0.02225   1.000
    Ts26    Ts   0.99999   0.97361   0.94826   1.000
    Ts27    Ts   0.00000   0.02636   0.05111   1.000
loop_
    _geom_bond_atom_site_label_1
    _geom_bond_atom_site_label_2
    _geom_bond_distance
    _geom_bond_site_symmetry_2
    _ccdc_geom_bond_type
    Zn0    Ts4       0.71539      .   S
    Zn0    Ts5       0.71769  1_554   S
    Zn0    Ts6       0.71766  1_454   S
    Zn0    Ts7       0.71535  1_455   S
    Zn0    Ts8       0.72731  1_554   S
    Zn0    Ts9       0.73025      .   S
    Zn1    Ts10      0.71667      .   S
    Zn1    Ts11      0.71626  1_564   S
    Zn1    Ts12      0.71625  1_564   S
    Zn1    Ts13      0.71667      .   S
    Zn1    Ts14      0.72859  1_554   S
    Zn1    Ts15      0.72924  1_565   S
    Zn2    Ts16      0.71773  1_556   S
    Zn2    Ts17      0.71531      .   S
    Zn2    Ts18      0.71529      .   S
    Zn2    Ts19      0.71778  1_556   S
    Zn2    Ts20      0.73042      .   S
    Zn2    Ts21      0.72736  1_556   S
    Zn3    Ts22      0.71645  1_546   S
    Zn3    Ts23      0.71647      .   S
    Zn3    Ts24      0.71649  1_455   S
    Zn3    Ts25      0.71650  1_446   S
    Zn3    Ts26      0.72916  1_445   S
    Zn3    Ts27      0.72867  1_556   S
