# CIF file generated by openbabel 2.4.90, see http://openbabel.sf.net
data_I
_chemical_name_common ''
_cell_length_a 14.826
_cell_length_b 21.759
_cell_length_c 12.748
_cell_angle_alpha 107.622
_cell_angle_beta 89.997
_cell_angle_gamma 90
_space_group_name_H-M_alt 'P 1'
_space_group_name_Hall 'P 1'
loop_
    _symmetry_equiv_pos_as_xyz
    x,y,z
loop_
    _atom_site_label
    _atom_site_type_symbol
    _atom_site_fract_x
    _atom_site_fract_y
    _atom_site_fract_z
    _atom_site_occupancy
    Zr0     Zr   0.00000   0.00000   0.99970   1.000
    Zr1     Zr   0.00000   0.49917   0.00000   1.000
    Zr2     Zr   0.50000   0.99999   0.00021   1.000
    Zr3     Zr   0.50000   0.50080   0.99995   1.000
    N4      N    0.25038   0.38907   0.04691   1.000
    N5      N    0.25010   0.11083   0.95284   1.000
    O6      O    0.09345   0.45671   0.04822   1.000
    O7      O    0.40669   0.04277   0.95202   1.000
    O8      O    0.09339   0.04282   0.95166   1.000
    O9      O    0.40673   0.45758   0.04791   1.000
    O10     O    0.25022   0.18920   0.97919   1.000
    N11     N    0.50000   0.75011   0.50021   1.000
    O12     O    0.50000   0.85527   0.71166   1.000
    O13     O    0.50000   0.64512   0.28866   1.000
    N14     N    0.00000   0.74973   0.49981   1.000
    O15     O    0.00001   0.64430   0.28850   1.000
    O16     O    0.99999   0.85508   0.71118   1.000
    N17     N    0.74991   0.11083   0.95284   1.000
    N18     N    0.74960   0.38907   0.04692   1.000
    O19     O    0.59326   0.45758   0.04791   1.000
    O20     O    0.59331   0.04277   0.95202   1.000
    O21     O    0.90661   0.04283   0.95166   1.000
    O22     O    0.90653   0.45671   0.04820   1.000
    O23     O    0.74978   0.18920   0.97924   1.000
    N24     N    0.24990   0.88913   0.04711   1.000
    N25     N    0.24962   0.61089   0.95306   1.000
    O26     O    0.40655   0.54325   0.95175   1.000
    O27     O    0.09327   0.54239   0.95205   1.000
    O28     O    0.09331   0.95720   0.04793   1.000
    O29     O    0.40660   0.95715   0.04829   1.000
    O30     O    0.24965   0.68927   0.97952   1.000
    N31     N    0.50000   0.25024   0.50008   1.000
    O32     O    0.50000   0.14490   0.28874   1.000
    O33     O    0.49999   0.35567   0.71140   1.000
    N34     N    0.00000   0.24986   0.49973   1.000
    O35     O    0.00000   0.35484   0.71130   1.000
    O36     O    0.00000   0.14470   0.28828   1.000
    N37     N    0.75009   0.88913   0.04711   1.000
    N38     N    0.75039   0.61089   0.95300   1.000
    O39     O    0.59346   0.54325   0.95174   1.000
    O40     O    0.90674   0.54239   0.95207   1.000
    O41     O    0.59338   0.95715   0.04829   1.000
    O42     O    0.90668   0.95720   0.04793   1.000
    O43     O    0.75035   0.68927   0.97949   1.000
loop_
    _geom_bond_atom_site_label_1
    _geom_bond_atom_site_label_2
    _geom_bond_distance
    _geom_bond_site_symmetry_2
    _ccdc_geom_bond_type
    N4     O6        2.75041      .   S
    Zr1    O6        1.86951      .   S
    N5     O7        2.75201      .   S
    Zr2    O7        1.87203  1_564   S
    N5     O8        2.75214      .   S
    Zr0    O8        1.87243      .   S
    N4     O9        2.75387      .   S
    Zr3    O9        1.87578  1_556   S
    N4     O10       4.16957  1_554   S
    N5     O10       1.63520      .   S
    N11    O12       2.96104      .   S
    Zr2    O12       4.05376  1_554   S
    N11    O13       2.95993      .   S
    Zr3    O13       4.05083  1_556   S
    N14    O15       2.96268      .   S
    Zr1    O15       4.05790      .   S
    N14    O16       2.96226  1_455   S
    Zr0    O16       4.05585  1_445   S
    N18    O19       2.75386      .   S
    Zr3    O19       1.87568  1_556   S
    N17    O20       2.75204      .   S
    Zr2    O20       1.87207  1_564   S
    N17    O21       2.75215      .   S
    Zr0    O21       1.87247  1_455   S
    N18    O22       2.75053      .   S
    Zr1    O22       1.86950  1_455   S
    N18    O23       4.16960  1_554   S
    N17    O23       1.63513      .   S
    N25    O26       2.75040      .   S
    Zr3    O26       1.86931      .   S
    N25    O27       2.75382      .   S
    Zr1    O27       1.87562  1_554   S
    N24    O28       2.75213      .   S
    Zr0    O28       1.87247  1_546   S
    N24    O29       2.75222      .   S
    Zr2    O29       1.87282      .   S
    N24    O30       4.16957  1_554   S
    N25    O30       1.63520      .   S
    N31    O32       2.96200      .   S
    Zr2    O32       4.05572  1_565   S
    N31    O33       2.96283      .   S
    Zr3    O33       4.05830      .   S
    N34    O35       2.96002      .   S
    Zr1    O35       4.05085  1_554   S
    N34    O36       2.96101      .   S
    Zr0    O36       4.05385  1_556   S
    N38    O39       2.75050      .   S
    Zr3    O39       1.86935      .   S
    N38    O40       2.75399      .   S
    Zr1    O40       1.87555  1_454   S
    N37    O41       2.75224      .   S
    Zr2    O41       1.87284      .   S
    N37    O42       2.75216      .   S
    Zr0    O42       1.87257  1_446   S
    N37    O43       4.16953  1_554   S
    N38    O43       1.63515      .   S
