# CIF file generated by openbabel 2.4.90, see http://openbabel.sf.net
data_I
_chemical_name_common ''
_cell_length_a 14.826
_cell_length_b 21.759
_cell_length_c 12.748
_cell_angle_alpha 107.622
_cell_angle_beta 89.997
_cell_angle_gamma 90
_space_group_name_H-M_alt 'P 1'
_space_group_name_Hall 'P 1'
loop_
    _symmetry_equiv_pos_as_xyz
    x,y,z
loop_
    _atom_site_label
    _atom_site_type_symbol
    _atom_site_fract_x
    _atom_site_fract_y
    _atom_site_fract_z
    _atom_site_occupancy
    N0      N    0.25038   0.38907   0.04691   1.000
    N1      N    0.25010   0.11083   0.95284   1.000
    O2      O    0.25022   0.18920   0.97919   1.000
    N3      N    0.50000   0.75011   0.50021   1.000
    N4      N    0.00000   0.74973   0.49981   1.000
    N5      N    0.74991   0.11083   0.95284   1.000
    N6      N    0.74960   0.38907   0.04692   1.000
    O7      O    0.74978   0.18920   0.97924   1.000
    N8      N    0.24990   0.88913   0.04711   1.000
    N9      N    0.24962   0.61089   0.95306   1.000
    O10     O    0.24965   0.68927   0.97952   1.000
    N11     N    0.50000   0.25024   0.50008   1.000
    N12     N    0.00000   0.24986   0.49973   1.000
    N13     N    0.75009   0.88913   0.04711   1.000
    N14     N    0.75039   0.61089   0.95300   1.000
    O15     O    0.75035   0.68927   0.97949   1.000
    Zr16    Zr   0.50000   0.99999   0.00021   1.000
    O17     O    0.54665   0.02138   0.97611   1.000
    O18     O    0.50000   0.07244   0.14447   1.000
    O19     O    0.45330   0.97857   0.02425   1.000
    O20     O    0.54669   0.97857   0.02425   1.000
    O21     O    0.50000   0.92763   0.85594   1.000
    O22     O    0.45334   0.02138   0.97611   1.000
    Zr23    Zr   0.50000   0.50080   0.99995   1.000
    O24     O    0.54663   0.47919   0.02393   1.000
    O25     O    0.54673   0.52203   0.97585   1.000
    O26     O    0.45327   0.52203   0.97585   1.000
    O27     O    0.50000   0.42824   0.85568   1.000
    O28     O    0.45337   0.47919   0.02393   1.000
    O29     O    0.50000   0.57296   0.14430   1.000
    Zr30    Zr   0.00000   0.49917   0.00000   1.000
    O31     O    0.95337   0.52078   0.97603   1.000
    O32     O    0.95327   0.47794   0.02410   1.000
    O33     O    0.04664   0.52078   0.97603   1.000
    O34     O    0.00001   0.57173   0.14425   1.000
    O35     O    0.00000   0.42701   0.85565   1.000
    O36     O    0.04673   0.47794   0.02411   1.000
    Zr37    Zr   0.00000   0.00000   0.99970   1.000
    O38     O    0.95334   0.97860   0.02382   1.000
    O39     O    0.04670   0.02141   0.97568   1.000
    O40     O    0.95331   0.02141   0.97568   1.000
    O41     O    0.04666   0.97860   0.02381   1.000
    O42     O    0.00000   0.07235   0.14399   1.000
    O43     O    1.00000   0.92754   0.85544   1.000
loop_
    _geom_bond_atom_site_label_1
    _geom_bond_atom_site_label_2
    _geom_bond_distance
    _geom_bond_site_symmetry_2
    _ccdc_geom_bond_type
    N0     O2        4.16957  1_554   S
    N1     O2        1.63520      .   S
    N6     O7        4.16960  1_554   S
    N5     O7        1.63513      .   S
    N8     O10       4.16957  1_554   S
    N9     O10       1.63520      .   S
    N13    O15       4.16953  1_554   S
    N14    O15       1.63515      .   S
    Zr16   O17       0.93604  1_564   S
    N5     O17       3.64783      .   S
    Zr16   O18       2.02786  1_565   S
    N11    O18       4.98985      .   S
    Zr16   O19       0.93641      .   S
    N8     O19       3.64815      .   S
    Zr16   O20       0.93642      .   S
    N13    O20       3.64818      .   S
    Zr16   O21       2.02688  1_554   S
    N3     O21       4.98790      .   S
    Zr16   O22       0.93601  1_564   S
    N1     O22       3.64776      .   S
    Zr23   O24       0.93784  1_556   S
    N6     O24       3.65169      .   S
    Zr23   O25       0.93468      .   S
    N14    O25       3.64439      .   S
    Zr23   O26       0.93465      .   S
    N9     O26       3.64422      .   S
    Zr23   O27       2.02915      .   S
    N11    O27       4.99196      .   S
    Zr23   O28       0.93789  1_556   S
    N0     O28       3.65173      .   S
    Zr23   O29       2.02542  1_556   S
    N3     O29       4.98533      .   S
    Zr30   O31       0.93778  1_454   S
    N14    O31       3.65185      .   S
    Zr30   O32       0.93475  1_455   S
    N6     O32       3.64448      .   S
    Zr30   O33       0.93781  1_554   S
    N9     O33       3.65161      .   S
    Zr30   O34       2.02895      .   S
    N4     O34       4.99161      .   S
    Zr30   O35       2.02542  1_554   S
    N12    O35       4.98543      .   S
    Zr30   O36       0.93476      .   S
    N0     O36       3.64429      .   S
    Zr37   O38       0.93628  1_446   S
    N13    O38       3.64814      .   S
    Zr37   O39       0.93622      .   S
    N1     O39       3.64793      .   S
    Zr37   O40       0.93623  1_455   S
    N5     O40       3.64794      .   S
    Zr37   O41       0.93624  1_546   S
    N8     O41       3.64809      .   S
    Zr37   O42       2.02692  1_556   S
    N12    O42       4.98792      .   S
    Zr37   O43       2.02792  1_445   S
    N4     O43       4.99016  1_455   S
