# CIF file generated by openbabel 2.4.90, see http://openbabel.sf.net
data_I
_chemical_name_common ''
_cell_length_a 16.563
_cell_length_b 16.569
_cell_length_c 16.571
_cell_angle_alpha 105.564
_cell_angle_beta 105.413
_cell_angle_gamma 105.367
_space_group_name_H-M_alt 'P 1'
_space_group_name_Hall 'P 1'
loop_
    _symmetry_equiv_pos_as_xyz
    x,y,z
loop_
    _atom_site_label
    _atom_site_type_symbol
    _atom_site_fract_x
    _atom_site_fract_y
    _atom_site_fract_z
    _atom_site_occupancy
    N0      N    0.05303   0.48669   0.87090   1.000
    N1      N    0.12912   0.51363   0.94700   1.000
    N2      N    0.98868   0.37139   0.55321   1.000
    N3      N    0.01131   0.44693   0.62871   1.000
    N4      N    0.87092   0.05312   0.48649   1.000
    C5      C    0.52519   0.12222   0.02783   1.000
    C6      C    0.51252   0.03824   0.03823   1.000
    C7      C    0.47486   0.97219   0.87778   1.000
    C8      C    0.62072   0.52618   0.01730   1.000
    C9      C    0.53728   0.53726   0.00754   1.000
    C10     C    0.47372   0.37932   0.98274   1.000
    C11     C    0.02766   0.52508   0.12218   1.000
    C12     C    0.03816   0.51250   0.03818   1.000
    C13     C    0.87785   0.47489   0.97230   1.000
    C14     C    0.01734   0.62080   0.52638   1.000
    C15     C    0.00756   0.53736   0.53731   1.000
    C16     C    0.98267   0.47354   0.37921   1.000
    C17     C    0.12214   0.02763   0.52509   1.000
    C18     C    0.03815   0.03817   0.51246   1.000
    C19     C    0.97236   0.87787   0.47495   1.000
    C20     C    0.52628   0.01726   0.62071   1.000
    C21     C    0.53728   0.00755   0.53726   1.000
    C22     C    0.37926   0.98268   0.47373   1.000
    C23     C    0.47485   0.87783   0.97217   1.000
    C24     C    0.48750   0.96181   0.96177   1.000
    C25     C    0.52517   0.02787   0.12222   1.000
    C26     C    0.37930   0.47387   0.98269   1.000
    C27     C    0.46274   0.46280   0.99247   1.000
    C28     C    0.52630   0.62074   0.01727   1.000
    C29     C    0.97235   0.47497   0.87783   1.000
    C30     C    0.96185   0.48755   0.96182   1.000
    C31     C    0.12216   0.52518   0.02771   1.000
    C32     C    0.98268   0.37925   0.47362   1.000
    C33     C    0.99246   0.46269   0.46269   1.000
    C34     C    0.01735   0.52651   0.62079   1.000
    C35     C    0.87787   0.97242   0.47489   1.000
    C36     C    0.96186   0.96189   0.48754   1.000
    C37     C    0.02766   0.12218   0.52506   1.000
    C38     C    0.47374   0.98281   0.37929   1.000
    C39     C    0.46273   0.99250   0.46274   1.000
    C40     C    0.62076   0.01739   0.52628   1.000
    I41     I    0.73588   0.26401   0.99991   1.000
    I42     I    0.49989   0.23373   0.76617   1.000
    I43     I    0.99993   0.73567   0.26422   1.000
    I44     I    0.76605   0.50008   0.23408   1.000
    I45     I    0.26411   0.00000   0.73587   1.000
    I46     I    0.23397   0.76582   0.49979   1.000
    I47     I    0.26415   0.73605   0.00010   1.000
    I48     I    0.50015   0.76634   0.23384   1.000
    I49     I    0.00008   0.26438   0.73577   1.000
    I50     I    0.23395   0.49997   0.76593   1.000
    I51     I    0.73592   0.00006   0.26412   1.000
    I52     I    0.76605   0.23425   0.50022   1.000
    N53     N    0.51352   0.12906   0.94711   1.000
    N54     N    0.48650   0.05286   0.87092   1.000
    N55     N    0.62872   0.44660   0.01130   1.000
    N56     N    0.55331   0.37125   0.98880   1.000
    N57     N    0.94699   0.51336   0.12911   1.000
    N58     N    0.87089   0.48642   0.05301   1.000
    N59     N    0.01133   0.62866   0.44679   1.000
    N60     N    0.98870   0.55312   0.37129   1.000
    N61     N    0.12910   0.94694   0.51350   1.000
    N62     N    0.05302   0.87088   0.48659   1.000
    N63     N    0.44666   0.01114   0.62869   1.000
    N64     N    0.37124   0.98857   0.55320   1.000
    N65     N    0.48651   0.87100   0.05289   1.000
    N66     N    0.51353   0.94720   0.12908   1.000
    N67     N    0.37130   0.55346   0.98862   1.000
    N68     N    0.44671   0.62881   0.01121   1.000
    N69     N    0.94700   0.12917   0.51340   1.000
    N70     N    0.55336   0.98892   0.37131   1.000
    N71     N    0.62878   0.01149   0.44672   1.000
loop_
    _geom_bond_atom_site_label_1
    _geom_bond_atom_site_label_2
    _geom_bond_distance
    _geom_bond_site_symmetry_2
    _ccdc_geom_bond_type
    C9     C28       1.41479      .   S
    C9     C8        1.41480      .   S
    C9     C27       1.40426  1_554   S
    N68    C28       1.34018      .   S
    N68    N67       1.39033  1_554   S
    N55    C8        1.33988      .   S
    N55    N56       1.39061  1_554   S
    C31    C12       1.41526      .   S
    C31    N1        1.33976  1_554   S
    C5     C6        1.41530      .   S
    C5     N53       1.33972  1_554   S
    C12    C11       1.41542      .   S
    C12    C30       1.40063  1_454   S
    C6     C25       1.41527      .   S
    C6     C24       1.40091  1_544   S
    N65    N66       1.39042      .   S
    N65    C23       1.33973  1_554   S
    N58    N57       1.39029      .   S
    N58    C13       1.33978  1_554   S
    C11    N57       1.33879  1_455   S
    C25    N66       1.33916  1_545   S
    N60    C16       1.34014      .   S
    N60    N59       1.39070  1_655   S
    N70    C38       1.34014      .   S
    N70    N71       1.39057  1_565   S
    C16    C33       1.41488      .   S
    C38    C39       1.41478      .   S
    N71    C40       1.34021      .   S
    N59    C14       1.33999      .   S
    C33    C32       1.41480      .   S
    C33    C15       1.40461  1_655   S
    C39    C22       1.41483      .   S
    C39    C21       1.40457  1_565   S
    C32    N2        1.34001      .   S
    C22    N64       1.33871      .   S
    C35    N4        1.33917  1_565   S
    C35    C36       1.41531      .   S
    C19    N62       1.33880  1_655   S
    C19    C36       1.41533      .   S
    N4     N69       1.39027      .   S
    N62    N61       1.39029      .   S
    C36    C18       1.40036  1_665   S
    C18    C37       1.41533      .   S
    C18    C17       1.41531      .   S
    N69    C37       1.33882  1_655   S
    N61    C17       1.33919  1_565   S
    C40    C21       1.41476      .   S
    C14    C15       1.41482      .   S
    C21    C20       1.41474      .   S
    C15    C34       1.41488      .   S
    N64    N63       1.39138  1_565   S
    N2     N3        1.39070  1_655   S
    C20    N63       1.34009      .   S
    C34    N3        1.34016      .   S
    N0     C29       1.33881  1_455   S
    N0     N1        1.39030      .   S
    N54    C7        1.33915  1_545   S
    N54    N53       1.39041      .   S
    C7     C24       1.41529      .   S
    C29    C30       1.41526      .   S
    C24    C23       1.41528      .   S
    C30    C13       1.41533      .   S
    C26    N67       1.34012      .   S
    C26    C27       1.41477      .   S
    C10    N56       1.34016      .   S
    C10    C27       1.41477      .   S
