# CIF file generated by openbabel 2.4.90, see http://openbabel.sf.net
data_I
_chemical_name_common ''
_cell_length_a 16.563
_cell_length_b 16.569
_cell_length_c 16.571
_cell_angle_alpha 105.564
_cell_angle_beta 105.413
_cell_angle_gamma 105.367
_space_group_name_H-M_alt 'P 1'
_space_group_name_Hall 'P 1'
loop_
    _symmetry_equiv_pos_as_xyz
    x,y,z
loop_
    _atom_site_label
    _atom_site_type_symbol
    _atom_site_fract_x
    _atom_site_fract_y
    _atom_site_fract_z
    _atom_site_occupancy
    Cu0     Cu   0.74939   0.43629   0.06201   1.000
    Cu1     Cu   0.93800   0.56346   0.25077   1.000
    Cu2     Cu   0.06199   0.74917   0.43644   1.000
    Cu3     Cu   0.25064   0.93789   0.56358   1.000
    Cu4     Cu   0.43628   0.06174   0.74942   1.000
    Cu5     Cu   0.43637   0.74957   0.06183   1.000
    Cu6     Cu   0.25063   0.56376   0.93801   1.000
    Cu7     Cu   0.06202   0.43659   0.74923   1.000
    Cu8     Cu   0.93802   0.25088   0.56356   1.000
    Cu9     Cu   0.74939   0.06221   0.43645   1.000
    Cu10    Cu   0.56373   0.93832   0.25059   1.000
    Cu11    Cu   0.56365   0.25050   0.93818   1.000
