# CIF file generated by openbabel 2.4.90, see http://openbabel.sf.net
data_I
_chemical_name_common ''
_cell_length_a 16.563
_cell_length_b 16.569
_cell_length_c 16.571
_cell_angle_alpha 105.564
_cell_angle_beta 105.413
_cell_angle_gamma 105.367
_space_group_name_H-M_alt 'P 1'
_space_group_name_Hall 'P 1'
loop_
    _symmetry_equiv_pos_as_xyz
    x,y,z
loop_
    _atom_site_label
    _atom_site_type_symbol
    _atom_site_fract_x
    _atom_site_fract_y
    _atom_site_fract_z
    _atom_site_occupancy
    Cu0     Cu   0.74939   0.43629   0.06201   1.000
    Cu1     Cu   0.93800   0.56346   0.25077   1.000
    Cu2     Cu   0.06199   0.74917   0.43644   1.000
    Cu3     Cu   0.25064   0.93789   0.56358   1.000
    Cu4     Cu   0.43628   0.06174   0.74942   1.000
    Cu5     Cu   0.43637   0.74957   0.06183   1.000
    Cu6     Cu   0.25063   0.56376   0.93801   1.000
    Cu7     Cu   0.06202   0.43659   0.74923   1.000
    Cu8     Cu   0.93802   0.25088   0.56356   1.000
    Cu9     Cu   0.74939   0.06221   0.43645   1.000
    Cu10    Cu   0.56373   0.93832   0.25059   1.000
    Cu11    Cu   0.56365   0.25050   0.93818   1.000
    N12     N    0.05303   0.48669   0.87090   1.000
    N13     N    0.12912   0.51363   0.94700   1.000
    N14     N    0.98868   0.37139   0.55321   1.000
    N15     N    0.01131   0.44693   0.62871   1.000
    N16     N    0.87092   0.05312   0.48649   1.000
    C17     C    0.52519   0.12222   0.02783   1.000
    C18     C    0.51252   0.03824   0.03823   1.000
    C19     C    0.47486   0.97219   0.87778   1.000
    C20     C    0.62072   0.52618   0.01730   1.000
    C21     C    0.53728   0.53726   0.00754   1.000
    C22     C    0.47372   0.37932   0.98274   1.000
    C23     C    0.02766   0.52508   0.12218   1.000
    C24     C    0.03816   0.51250   0.03818   1.000
    C25     C    0.87785   0.47489   0.97230   1.000
    C26     C    0.01734   0.62080   0.52638   1.000
    C27     C    0.00756   0.53736   0.53731   1.000
    C28     C    0.98267   0.47354   0.37921   1.000
    C29     C    0.12214   0.02763   0.52509   1.000
    C30     C    0.03815   0.03817   0.51246   1.000
    C31     C    0.97236   0.87787   0.47495   1.000
    C32     C    0.52628   0.01726   0.62071   1.000
    C33     C    0.53728   0.00755   0.53726   1.000
    C34     C    0.37926   0.98268   0.47373   1.000
    C35     C    0.47485   0.87783   0.97217   1.000
    C36     C    0.48750   0.96181   0.96177   1.000
    C37     C    0.52517   0.02787   0.12222   1.000
    C38     C    0.37930   0.47387   0.98269   1.000
    C39     C    0.46274   0.46280   0.99247   1.000
    C40     C    0.52630   0.62074   0.01727   1.000
    C41     C    0.97235   0.47497   0.87783   1.000
    C42     C    0.96185   0.48755   0.96182   1.000
    C43     C    0.12216   0.52518   0.02771   1.000
    C44     C    0.98268   0.37925   0.47362   1.000
    C45     C    0.99246   0.46269   0.46269   1.000
    C46     C    0.01735   0.52651   0.62079   1.000
    C47     C    0.87787   0.97242   0.47489   1.000
    C48     C    0.96186   0.96189   0.48754   1.000
    C49     C    0.02766   0.12218   0.52506   1.000
    C50     C    0.47374   0.98281   0.37929   1.000
    C51     C    0.46273   0.99250   0.46274   1.000
    C52     C    0.62076   0.01739   0.52628   1.000
    I53     I    0.73588   0.26401   0.99991   1.000
    I54     I    0.49989   0.23373   0.76617   1.000
    I55     I    0.99993   0.73567   0.26422   1.000
    I56     I    0.76605   0.50008   0.23408   1.000
    I57     I    0.26411   0.00000   0.73587   1.000
    I58     I    0.23397   0.76582   0.49979   1.000
    I59     I    0.26415   0.73605   0.00010   1.000
    I60     I    0.50015   0.76634   0.23384   1.000
    I61     I    0.00008   0.26438   0.73577   1.000
    I62     I    0.23395   0.49997   0.76593   1.000
    I63     I    0.73592   0.00006   0.26412   1.000
    I64     I    0.76605   0.23425   0.50022   1.000
    N65     N    0.51352   0.12906   0.94711   1.000
    N66     N    0.48650   0.05286   0.87092   1.000
    N67     N    0.62872   0.44660   0.01130   1.000
    N68     N    0.55331   0.37125   0.98880   1.000
    N69     N    0.94699   0.51336   0.12911   1.000
    N70     N    0.87089   0.48642   0.05301   1.000
    N71     N    0.01133   0.62866   0.44679   1.000
    N72     N    0.98870   0.55312   0.37129   1.000
    N73     N    0.12910   0.94694   0.51350   1.000
    N74     N    0.05302   0.87088   0.48659   1.000
    N75     N    0.44666   0.01114   0.62869   1.000
    N76     N    0.37124   0.98857   0.55320   1.000
    N77     N    0.48651   0.87100   0.05289   1.000
    N78     N    0.51353   0.94720   0.12908   1.000
    N79     N    0.37130   0.55346   0.98862   1.000
    N80     N    0.44671   0.62881   0.01121   1.000
    N81     N    0.94700   0.12917   0.51340   1.000
    N82     N    0.55336   0.98892   0.37131   1.000
    N83     N    0.62878   0.01149   0.44672   1.000
    Ts84    Ts   0.53536   0.14978   0.05500   1.000
    Ts85    Ts   0.46468   0.94501   0.85022   1.000
    Ts86    Ts   0.64764   0.55250   0.02323   1.000
    Ts87    Ts   0.44736   0.35241   0.97677   1.000
    Ts88    Ts   0.05481   0.53527   0.14970   1.000
    Ts89    Ts   0.85034   0.46473   0.94515   1.000
    Ts90    Ts   0.02330   0.64777   0.55276   1.000
    Ts91    Ts   0.97669   0.44714   0.35226   1.000
    Ts92    Ts   0.14966   0.05477   0.53506   1.000
    Ts93    Ts   0.94522   0.85036   0.46477   1.000
    Ts94    Ts   0.55264   0.02323   0.64764   1.000
    Ts95    Ts   0.35234   0.97675   0.44738   1.000
    Ts96    Ts   0.46467   0.85028   0.94500   1.000
    Ts97    Ts   0.53535   0.05505   0.14977   1.000
    Ts98    Ts   0.35238   0.44755   0.97677   1.000
    Ts99    Ts   0.55266   0.64764   0.02324   1.000
    Ts100   Ts   0.94521   0.46478   0.85030   1.000
    Ts101   Ts   0.14968   0.53533   0.05486   1.000
    Ts102   Ts   0.97671   0.35229   0.44724   1.000
    Ts103   Ts   0.02333   0.55291   0.64773   1.000
    Ts104   Ts   0.85035   0.94529   0.46473   1.000
    Ts105   Ts   0.05479   0.14969   0.53523   1.000
    Ts106   Ts   0.44738   0.97683   0.35236   1.000
    Ts107   Ts   0.64767   0.02331   0.55262   1.000
loop_
    _geom_bond_atom_site_label_1
    _geom_bond_atom_site_label_2
    _geom_bond_distance
    _geom_bond_site_symmetry_2
    _ccdc_geom_bond_type
    I59    Cu6       2.68711  1_554   S
    C21    C40       1.41479      .   S
    C21    C20       1.41480      .   S
    C21    C39       1.40426  1_554   S
    N80    C40       1.34018      .   S
    N80    Cu5       2.02325      .   S
    N80    N79       1.39033  1_554   S
    N67    C20       1.33988      .   S
    N67    Cu0       2.02364      .   S
    N67    N68       1.39061  1_554   S
    C43    C24       1.41526      .   S
    C43    N13       1.33976  1_554   S
    C17    C18       1.41530      .   S
    C17    N65       1.33972  1_554   S
    C24    C23       1.41542      .   S
    C24    C42       1.40063  1_454   S
    C18    C37       1.41527      .   S
    C18    C36       1.40091  1_544   S
    N77    Cu5       2.02472      .   S
    N77    N78       1.39042      .   S
    N77    C35       1.33973  1_554   S
    N70    Cu0       2.02544      .   S
    N70    N69       1.39029      .   S
    N70    C25       1.33978  1_554   S
    Cu0    I53       2.68699  1_554   S
    C23    N69       1.33879  1_455   S
    C37    N78       1.33916  1_545   S
    N78    Cu10      2.02519      .   S
    N69    Cu1       2.02550      .   S
    I60    Cu10      2.67121      .   S
    I56    Cu1       2.67033      .   S
    Cu10   I63       2.68721  1_565   S
    Cu10   N82       2.02318      .   S
    Cu1    N72       2.02275      .   S
    I55    Cu2       2.68836  1_655   S
    N72    C28       1.34014      .   S
    N72    N71       1.39070  1_655   S
    N82    C50       1.34014      .   S
    N82    N83       1.39057  1_565   S
    C28    C45       1.41488      .   S
    C50    C51       1.41478      .   S
    Cu2    N71       2.02308      .   S
    Cu2    N74       2.02595      .   S
    Cu2    I58       2.67028      .   S
    Cu9    N83       2.02322      .   S
    Cu9    N16       2.02549      .   S
    Cu9    I64       2.67017      .   S
    N83    C52       1.34021      .   S
    N71    C26       1.33999      .   S
    C45    C44       1.41480      .   S
    C45    C27       1.40461  1_655   S
    C51    C34       1.41483      .   S
    C51    C33       1.40457  1_565   S
    C44    N14       1.34001      .   S
    C34    N76       1.33871      .   S
    C47    N16       1.33917  1_565   S
    C47    C48       1.41531      .   S
    C31    N74       1.33880  1_655   S
    C31    C48       1.41533      .   S
    N16    N81       1.39027      .   S
    N74    N73       1.39029      .   S
    C48    C30       1.40036  1_665   S
    C30    C49       1.41533      .   S
    C30    C29       1.41531      .   S
    N81    C49       1.33882  1_655   S
    N81    Cu8       2.02593      .   S
    N73    C29       1.33919  1_565   S
    N73    Cu3       2.02550      .   S
    C52    C33       1.41476      .   S
    C26    C27       1.41482      .   S
    C33    C32       1.41474      .   S
    C27    C46       1.41488      .   S
    N76    Cu3       2.02388      .   S
    N76    N75       1.39138  1_565   S
    N14    Cu8       2.02305      .   S
    N14    N15       1.39070  1_655   S
    Cu8    I61       2.68822  1_655   S
    C32    N75       1.34009      .   S
    C46    N15       1.34016      .   S
    N75    Cu4       2.02335      .   S
    N15    Cu7       2.02271      .   S
    I57    Cu4       2.68693      .   S
    Cu7    I62       2.67011      .   S
    Cu7    N12       2.02565      .   S
    Cu4    N66       2.02506      .   S
    I54    Cu11      2.67145      .   S
    N12    C41       1.33881  1_455   S
    N12    N13       1.39030      .   S
    N66    C19       1.33915  1_545   S
    N66    N65       1.39041      .   S
    C19    C36       1.41529      .   S
    C41    C42       1.41526      .   S
    Cu6    N13       2.02539      .   S
    Cu6    N79       2.02334      .   S
    Cu11   N65       2.02473      .   S
    Cu11   N68       2.02315      .   S
    C36    C35       1.41528      .   S
    C42    C25       1.41533      .   S
    C38    N79       1.34012      .   S
    C38    C39       1.41477      .   S
    C22    N68       1.34016      .   S
    C22    C39       1.41477      .   S
    C17    Ts84      0.49815      .   S
    C19    Ts85      0.49826      .   S
    C20    Ts86      0.49927      .   S
    C22    Ts87      0.49932      .   S
    C23    Ts88      0.49810      .   S
    C25    Ts89      0.49817      .   S
    C26    Ts90      0.49931      .   S
    C28    Ts91      0.49931      .   S
    C29    Ts92      0.49865      .   S
    C31    Ts93      0.49811      .   S
    C32    Ts94      0.49932      .   S
    C34    Ts95      0.49931      .   S
    C35    Ts96      0.49815      .   S
    C37    Ts97      0.49816      .   S
    C38    Ts98      0.49928      .   S
    C40    Ts99      0.49932      .   S
    C41    Ts100     0.49813      .   S
    C43    Ts101     0.49815      .   S
    C44    Ts102     0.49931      .   S
    C46    Ts103     0.49917      .   S
    C47    Ts104     0.49815      .   S
    C49    Ts105     0.49812      .   S
    C50    Ts106     0.49930      .   S
    C52    Ts107     0.49929      .   S
