# CIF file generated by openbabel 2.4.90, see http://openbabel.sf.net
data_I
_chemical_name_common ''
_cell_length_a 18.425
_cell_length_b 18.434
_cell_length_c 18.434
_cell_angle_alpha 60.137
_cell_angle_beta 60.147
_cell_angle_gamma 60.15
_space_group_name_H-M_alt 'P 1'
_space_group_name_Hall 'P 1'
loop_
    _symmetry_equiv_pos_as_xyz
    x,y,z
loop_
    _atom_site_label
    _atom_site_type_symbol
    _atom_site_fract_x
    _atom_site_fract_y
    _atom_site_fract_z
    _atom_site_occupancy
    H0      H    0.04830   0.56800   0.04856   1.000
    H1      H    0.56814   0.04804   0.33565   1.000
    H2      H    0.04797   0.33568   0.04750   1.000
    H3      H    0.33562   0.04835   0.56818   1.000
    H4      H    0.04796   0.04759   0.33567   1.000
    H5      H    0.56814   0.33567   0.04803   1.000
    H6      H    0.04830   0.04855   0.56800   1.000
    H7      H    0.33562   0.56817   0.04835   1.000
    H8      H    0.04817   0.33567   0.56817   1.000
    H9      H    0.56814   0.04837   0.04837   1.000
    H10     H    0.04818   0.56815   0.33565   1.000
    H11     H    0.33563   0.04779   0.04777   1.000
    H12     H    0.43189   0.95163   0.95161   1.000
    H13     H    0.95185   0.43184   0.66433   1.000
    H14     H    0.66439   0.95221   0.95221   1.000
    H15     H    0.95185   0.66433   0.43181   1.000
    H16     H    0.95207   0.95240   0.66431   1.000
    H17     H    0.66440   0.43182   0.95163   1.000
    H18     H    0.95172   0.95145   0.43198   1.000
    H19     H    0.43189   0.66433   0.95195   1.000
    H20     H    0.66441   0.95165   0.43181   1.000
    H21     H    0.95172   0.43200   0.95142   1.000
    H22     H    0.43189   0.95195   0.66433   1.000
    H23     H    0.95206   0.66431   0.95242   1.000
    C24     C    0.02676   0.53897   0.02691   1.000
    C25     C    0.53907   0.02662   0.40760   1.000
    C26     C    0.02656   0.40767   0.02634   1.000
    C27     C    0.40763   0.02679   0.53908   1.000
    C28     C    0.02656   0.02636   0.40766   1.000
    C29     C    0.53908   0.40766   0.02660   1.000
    C30     C    0.02676   0.02690   0.53890   1.000
    C31     C    0.40764   0.53909   0.02678   1.000
    C32     C    0.02668   0.40765   0.53908   1.000
    C33     C    0.53904   0.02680   0.02680   1.000
    C34     C    0.02668   0.53907   0.40764   1.000
    C35     C    0.40764   0.02647   0.02646   1.000
    C36     C    0.46098   0.97319   0.97318   1.000
    C37     C    0.97334   0.46092   0.59234   1.000
    C38     C    0.59238   0.97353   0.97352   1.000
    C39     C    0.97334   0.59234   0.46090   1.000
    C40     C    0.97347   0.97364   0.59230   1.000
    C41     C    0.59239   0.46091   0.97320   1.000
    C42     C    0.97326   0.97309   0.46102   1.000
    C43     C    0.46095   0.59234   0.97338   1.000
    C44     C    0.59239   0.97321   0.46090   1.000
    C45     C    0.97326   0.46103   0.97307   1.000
    C46     C    0.46095   0.97338   0.59234   1.000
    C47     C    0.97346   0.59233   0.97364   1.000
    C48     C    0.05367   0.44629   0.05360   1.000
    C49     C    0.44636   0.05374   0.44640   1.000
    C50     C    0.05366   0.05361   0.44628   1.000
    C51     C    0.44637   0.44640   0.05373   1.000
    C52     C    0.05371   0.44639   0.44639   1.000
    C53     C    0.44631   0.05363   0.05360   1.000
    C54     C    0.55371   0.94636   0.94636   1.000
    C55     C    0.94631   0.55361   0.55359   1.000
    C56     C    0.94636   0.94638   0.55370   1.000
    C57     C    0.55366   0.55359   0.94625   1.000
    C58     C    0.55366   0.94626   0.55358   1.000
    C59     C    0.94636   0.55371   0.94638   1.000
loop_
    _geom_bond_atom_site_label_1
    _geom_bond_atom_site_label_2
    _geom_bond_distance
    _geom_bond_site_symmetry_2
    _ccdc_geom_bond_type
    C26    H2        1.08869      .   S
    C26    C48       1.40312      .   S
    C26    C45       1.39028  1_454   S
    C35    H11       1.08863      .   S
    C35    C53       1.40289      .   S
    C35    C36       1.39061  1_544   S
    C29    H5        1.08859      .   S
    C29    C51       1.40318      .   S
    C29    C41       1.39016  1_554   S
    C31    H7        1.08860      .   S
    C31    C51       1.40319      .   S
    C31    C43       1.39016  1_554   S
    C33    H9        1.08870      .   S
    C33    C53       1.40341      .   S
    C33    C38       1.39061  1_544   S
    C24    H0        1.08856      .   S
    C24    C48       1.40333      .   S
    C24    C47       1.39028  1_454   S
    H10    C34       1.08857      .   S
    H1     C25       1.08797      .   S
    H4     C28       1.08866      .   S
    C25    C49       1.40324      .   S
    C25    C44       1.39090  1_545   S
    C34    C52       1.40323      .   S
    C34    C39       1.39027  1_455   S
    C28    C50       1.40310      .   S
    C28    C42       1.39002  1_445   S
    H15    C39       1.08861      .   S
    H20    C44       1.08859      .   S
    H18    C42       1.08867      .   S
    C50    C30       1.40230      .   S
    C52    C32       1.40328      .   S
    C49    C27       1.40314      .   S
    C44    C58       1.40314      .   S
    C39    C55       1.40328      .   S
    C42    C56       1.40326      .   S
    C30    H6        1.08962      .   S
    C30    C40       1.39004  1_445   S
    C32    H8        1.08861      .   S
    C32    C37       1.39027  1_455   S
    C27    H3        1.08860      .   S
    C27    C46       1.39038  1_545   S
    C58    C46       1.40318      .   S
    C55    C37       1.40323      .   S
    C56    C40       1.40276      .   S
    C40    H16       1.08898      .   S
    C37    H13       1.08857      .   S
    C46    H22       1.08855      .   S
    C57    C41       1.40319      .   S
    C57    C43       1.40318      .   S
    C54    C36       1.40339      .   S
    C54    C38       1.40318      .   S
    C59    C45       1.40333      .   S
    C59    C47       1.40311      .   S
    H21    C45       1.08857      .   S
    H12    C36       1.08870      .   S
    H17    C41       1.08860      .   S
    H19    C43       1.08859      .   S
    H14    C38       1.08862      .   S
    H23    C47       1.08863      .   S
