# CIF file generated by openbabel 2.4.90, see http://openbabel.sf.net
data_I
_chemical_name_common ''
_cell_length_a 18.425
_cell_length_b 18.434
_cell_length_c 18.434
_cell_angle_alpha 60.137
_cell_angle_beta 60.147
_cell_angle_gamma 60.15
_space_group_name_H-M_alt 'P 1'
_space_group_name_Hall 'P 1'
loop_
    _symmetry_equiv_pos_as_xyz
    x,y,z
loop_
    _atom_site_label
    _atom_site_type_symbol
    _atom_site_fract_x
    _atom_site_fract_y
    _atom_site_fract_z
    _atom_site_occupancy
    N0      N    0.00001   0.50000   0.49999   1.000
    N1      N    0.50001   1.00000   0.99999   1.000
    N2      N    0.50001   1.00000   0.49999   1.000
    N3      N    0.50001   0.50000   0.99999   1.000
    N4      N    0.00001   0.50000   0.99998   1.000
    N5      N    0.00001   1.00000   0.49998   1.000
    Zr6     Zr   0.25002   0.25004   0.25003   1.000
    O7      O    0.35442   0.14559   0.14558   1.000
    O8      O    0.35444   0.14564   0.35445   1.000
    O9      O    0.14562   0.35446   0.35445   1.000
    O10     O    0.14559   0.14559   0.35441   1.000
    O11     O    0.35444   0.35446   0.14563   1.000
    O12     O    0.14559   0.35442   0.14558   1.000
    Zr13    Zr   0.75001   0.74995   0.74994   1.000
    O14     O    0.85441   0.64554   0.64552   1.000
    O15     O    0.64559   0.64554   0.85434   1.000
    O16     O    0.64560   0.85440   0.85439   1.000
    O17     O    0.85443   0.64558   0.85439   1.000
    O18     O    0.85443   0.85440   0.64556   1.000
    O19     O    0.64559   0.85436   0.64552   1.000
loop_
    _geom_bond_atom_site_label_1
    _geom_bond_atom_site_label_2
    _geom_bond_distance
    _geom_bond_site_symmetry_2
    _ccdc_geom_bond_type
    Zr6    O7        2.72626      .   S
    N1     O7        3.80018  1_566   S
    Zr6    O8        2.72437      .   S
    N2     O8        3.79769  1_565   S
    Zr6    O9        2.72536      .   S
    N0     O9        3.79878      .   S
    Zr6    O10       2.72474      .   S
    N5     O10       3.79832  1_565   S
    Zr6    O11       2.72422      .   S
    N3     O11       3.79754  1_556   S
    Zr6    O12       2.72487      .   S
    N4     O12       3.79853  1_556   S
    Zr13   O14       2.72529      .   S
    N0     O14       3.79870  1_455   S
    Zr13   O15       2.72422      .   S
    N3     O15       3.79754      .   S
    Zr13   O16       2.72629      .   S
    N1     O16       3.80025      .   S
    Zr13   O17       2.72491      .   S
    N4     O17       3.79849  1_455   S
    Zr13   O18       2.72474      .   S
    N5     O18       3.79833  1_455   S
    Zr13   O19       2.72431      .   S
    N2     O19       3.79768      .   S
