# CIF file generated by openbabel 2.4.90, see http://openbabel.sf.net
data_I
_chemical_name_common ''
_cell_length_a 18.425
_cell_length_b 18.434
_cell_length_c 18.434
_cell_angle_alpha 60.137
_cell_angle_beta 60.147
_cell_angle_gamma 60.15
_space_group_name_H-M_alt 'P 1'
_space_group_name_Hall 'P 1'
loop_
    _symmetry_equiv_pos_as_xyz
    x,y,z
loop_
    _atom_site_label
    _atom_site_type_symbol
    _atom_site_fract_x
    _atom_site_fract_y
    _atom_site_fract_z
    _atom_site_occupancy
    C0      C    0.20659   0.38046   0.20673   1.000
    C1      C    0.38048   0.20663   0.20663   1.000
    C2      C    0.20638   0.20635   0.20630   1.000
    C3      C    0.20659   0.20673   0.38047   1.000
    C4      C    0.61955   0.79337   0.79335   1.000
    C5      C    0.79343   0.61953   0.79325   1.000
    C6      C    0.79364   0.79364   0.79365   1.000
    C7      C    0.79343   0.79327   0.61950   1.000
    C8      C    0.04830   0.56800   0.04856   1.000
    C9      C    0.56814   0.04804   0.33565   1.000
    C10     C    0.04797   0.33568   0.04750   1.000
    C11     C    0.33562   0.04835   0.56818   1.000
    C12     C    0.04796   0.04759   0.33567   1.000
    C13     C    0.56814   0.33567   0.04803   1.000
    C14     C    0.04830   0.04855   0.56800   1.000
    C15     C    0.33562   0.56817   0.04835   1.000
    C16     C    0.04817   0.33567   0.56817   1.000
    C17     C    0.56814   0.04837   0.04837   1.000
    C18     C    0.04818   0.56815   0.33565   1.000
    C19     C    0.33563   0.04779   0.04777   1.000
    C20     C    0.43189   0.95163   0.95161   1.000
    C21     C    0.95185   0.43184   0.66433   1.000
    C22     C    0.66439   0.95221   0.95221   1.000
    C23     C    0.95185   0.66433   0.43181   1.000
    C24     C    0.95207   0.95240   0.66431   1.000
    C25     C    0.66440   0.43182   0.95163   1.000
    C26     C    0.95172   0.95145   0.43198   1.000
    C27     C    0.43189   0.66433   0.95195   1.000
    C28     C    0.66441   0.95165   0.43181   1.000
    C29     C    0.95172   0.43200   0.95142   1.000
    C30     C    0.43189   0.95195   0.66433   1.000
    C31     C    0.95206   0.66431   0.95242   1.000
    C32     C    0.02676   0.53897   0.02691   1.000
    C33     C    0.53907   0.02662   0.40760   1.000
    C34     C    0.02656   0.40767   0.02634   1.000
    C35     C    0.40763   0.02679   0.53908   1.000
    C36     C    0.02656   0.02636   0.40766   1.000
    C37     C    0.53908   0.40766   0.02660   1.000
    C38     C    0.02676   0.02690   0.53890   1.000
    C39     C    0.40764   0.53909   0.02678   1.000
    C40     C    0.02668   0.40765   0.53908   1.000
    C41     C    0.53904   0.02680   0.02680   1.000
    C42     C    0.02668   0.53907   0.40764   1.000
    C43     C    0.40764   0.02647   0.02646   1.000
    C44     C    0.46098   0.97319   0.97318   1.000
    C45     C    0.97334   0.46092   0.59234   1.000
    C46     C    0.59238   0.97353   0.97352   1.000
    C47     C    0.97334   0.59234   0.46090   1.000
    C48     C    0.97347   0.97364   0.59230   1.000
    C49     C    0.59239   0.46091   0.97320   1.000
    C50     C    0.97326   0.97309   0.46102   1.000
    C51     C    0.46095   0.59234   0.97338   1.000
    C52     C    0.59239   0.97321   0.46090   1.000
    C53     C    0.97326   0.46103   0.97307   1.000
    C54     C    0.46095   0.97338   0.59234   1.000
    C55     C    0.97346   0.59233   0.97364   1.000
    C56     C    0.11099   0.38891   0.11094   1.000
    C57     C    0.05367   0.44629   0.05360   1.000
    C58     C    0.38903   0.11120   0.38910   1.000
    C59     C    0.44636   0.05374   0.44640   1.000
    C60     C    0.11099   0.11096   0.38890   1.000
    C61     C    0.05366   0.05361   0.44628   1.000
    C62     C    0.38903   0.38910   0.11121   1.000
    C63     C    0.44637   0.44640   0.05373   1.000
    C64     C    0.11113   0.38910   0.38910   1.000
    C65     C    0.05371   0.44639   0.44639   1.000
    C66     C    0.38895   0.11095   0.11094   1.000
    C67     C    0.44631   0.05363   0.05360   1.000
    C68     C    0.61107   0.88904   0.88904   1.000
    C69     C    0.55371   0.94636   0.94636   1.000
    C70     C    0.88889   0.61090   0.61088   1.000
    C71     C    0.94631   0.55361   0.55359   1.000
    C72     C    0.88904   0.88904   0.61108   1.000
    C73     C    0.94636   0.94638   0.55370   1.000
    C74     C    0.61099   0.61090   0.88878   1.000
    C75     C    0.55366   0.55359   0.94625   1.000
    C76     C    0.61099   0.88880   0.61088   1.000
    C77     C    0.55366   0.94626   0.55358   1.000
    C78     C    0.88903   0.61109   0.88904   1.000
    C79     C    0.94636   0.55371   0.94638   1.000
    C80     C    0.24997   0.25000   0.24999   1.000
    C81     C    0.75006   0.75000   0.74999   1.000
    C82     C    0.13326   0.42850   0.13310   1.000
    C83     C    0.42863   0.13343   0.30532   1.000
    C84     C    0.13290   0.30512   0.13290   1.000
    C85     C    0.30523   0.13329   0.42870   1.000
    C86     C    0.13289   0.13299   0.30511   1.000
    C87     C    0.42863   0.30532   0.13341   1.000
    C88     C    0.13324   0.13315   0.42850   1.000
    C89     C    0.30523   0.42870   0.13330   1.000
    C90     C    0.13327   0.30531   0.42870   1.000
    C91     C    0.42858   0.13317   0.13316   1.000
    C92     C    0.13326   0.42869   0.30531   1.000
    C93     C    0.30512   0.13293   0.13292   1.000
    C94     C    0.57144   0.86683   0.86682   1.000
    C95     C    0.86676   0.57131   0.69467   1.000
    C96     C    0.69491   0.86706   0.86706   1.000
    C97     C    0.86675   0.69468   0.57128   1.000
    C98     C    0.86713   0.86700   0.69487   1.000
    C99     C    0.69480   0.57130   0.86660   1.000
    C100    C    0.86678   0.86684   0.57148   1.000
    C101    C    0.57139   0.69467   0.86657   1.000
    C102    C    0.69480   0.86671   0.57128   1.000
    C103    C    0.86677   0.57149   0.86685   1.000
    C104    C    0.57139   0.86656   0.69460   1.000
    C105    C    0.86712   0.69488   0.86702   1.000
    O106    O    0.03727   0.37168   0.03692   1.000
    O107    O    0.04012   0.42698   0.03997   1.000
    O108    O    0.99991   0.43435   0.99970   1.000
    O109    O    0.37164   0.03713   0.03712   1.000
    O110    O    0.42698   0.04005   0.04003   1.000
    O111    O    0.43431   0.99983   0.99982   1.000
    O112    O    0.55361   0.37166   0.03732   1.000
    O113    O    0.49272   0.42703   0.04016   1.000
    O114    O    0.56573   0.43428   0.99990   1.000
    O115    O    0.37163   0.55363   0.03757   1.000
    O116    O    0.42700   0.49274   0.04026   1.000
    O117    O    0.43429   0.56571   0.00008   1.000
    O118    O    0.55359   0.03758   0.03759   1.000
    O119    O    0.49268   0.04022   0.04020   1.000
    O120    O    0.56571   0.00017   0.00016   1.000
    O121    O    0.03753   0.55349   0.03773   1.000
    O122    O    0.04021   0.49263   0.04026   1.000
    O123    O    0.00011   0.56565   0.00027   1.000
    O124    O    0.08233   0.41760   0.08227   1.000
    O125    O    0.41763   0.08229   0.08227   1.000
    O126    O    0.41770   0.41775   0.08247   1.000
    O127    O    0.12195   0.34701   0.12192   1.000
    O128    O    0.12212   0.40870   0.12202   1.000
    O129    O    0.34703   0.12194   0.12193   1.000
    O130    O    0.40877   0.12206   0.12205   1.000
    O131    O    0.34713   0.40890   0.12225   1.000
    O132    O    0.40883   0.34721   0.12231   1.000
    O133    O    0.16964   0.25574   0.16960   1.000
    O134    O    0.25575   0.16964   0.16961   1.000
    O135    O    0.16992   0.40448   0.16991   1.000
    O136    O    0.40453   0.16990   0.16990   1.000
    O137    O    0.25591   0.40458   0.17002   1.000
    O138    O    0.40455   0.25598   0.17002   1.000
    O139    O    0.16964   0.16967   0.25570   1.000
    O140    O    0.31522   0.22831   0.22831   1.000
    O141    O    0.40455   0.17003   0.25598   1.000
    O142    O    0.22828   0.31523   0.22836   1.000
    O143    O    0.16993   0.40458   0.25602   1.000
    O144    O    0.12194   0.12198   0.34700   1.000
    O145    O    0.12220   0.40889   0.34721   1.000
    O146    O    0.40883   0.12232   0.34721   1.000
    O147    O    0.03743   0.55361   0.37165   1.000
    O148    O    0.55360   0.03733   0.37162   1.000
    O149    O    0.03726   0.03698   0.37167   1.000
    O150    O    0.16992   0.16994   0.40448   1.000
    O151    O    0.25591   0.17001   0.40458   1.000
    O152    O    0.16993   0.25602   0.40458   1.000
    O153    O    0.12211   0.12205   0.40870   1.000
    O154    O    0.08232   0.08229   0.41759   1.000
    O155    O    0.34713   0.12225   0.40890   1.000
    O156    O    0.41770   0.08247   0.41775   1.000
    O157    O    0.12220   0.34720   0.40890   1.000
    O158    O    0.08242   0.41774   0.41774   1.000
    O159    O    0.49272   0.04018   0.42700   1.000
    O160    O    0.56573   0.99991   0.43425   1.000
    O161    O    0.04020   0.49273   0.42701   1.000
    O162    O    0.00001   0.56571   0.43427   1.000
    O163    O    0.04011   0.03999   0.42697   1.000
    O164    O    0.99991   0.99973   0.43434   1.000
    O165    O    0.96260   0.62834   0.44636   1.000
    O166    O    0.62840   0.96243   0.44636   1.000
    O167    O    0.96249   0.96227   0.44650   1.000
    O168    O    0.04021   0.04026   0.49259   1.000
    O169    O    0.04020   0.42702   0.49273   1.000
    O170    O    0.42700   0.04026   0.49274   1.000
    O171    O    0.57303   0.95973   0.50724   1.000
    O172    O    0.95983   0.57297   0.50725   1.000
    O173    O    0.95981   0.95974   0.50736   1.000
    O174    O    0.03753   0.03773   0.55345   1.000
    O175    O    0.00012   0.00027   0.56560   1.000
    O176    O    0.03743   0.37166   0.55362   1.000
    O177    O    0.00001   0.43429   0.56571   1.000
    O178    O    0.37162   0.03757   0.55363   1.000
    O179    O    0.43429   0.00009   0.56571   1.000
    O180    O    0.50731   0.95982   0.57296   1.000
    O181    O    0.58233   0.91753   0.58223   1.000
    O182    O    0.95983   0.50727   0.57297   1.000
    O183    O    0.91760   0.58225   0.58223   1.000
    O184    O    0.95992   0.96001   0.57300   1.000
    O185    O    0.91770   0.91771   0.58239   1.000
    O186    O    0.65289   0.87775   0.59108   1.000
    O187    O    0.74411   0.82999   0.59539   1.000
    O188    O    0.87782   0.65279   0.59108   1.000
    O189    O    0.83009   0.74398   0.59539   1.000
    O190    O    0.87791   0.87794   0.59128   1.000
    O191    O    0.83011   0.83006   0.59549   1.000
    O192    O    0.96277   0.96302   0.62830   1.000
    O193    O    0.96259   0.44638   0.62833   1.000
    O194    O    0.44642   0.96267   0.62833   1.000
    O195    O    0.87783   0.59110   0.65277   1.000
    O196    O    0.59119   0.87768   0.65274   1.000
    O197    O    0.87809   0.87802   0.65297   1.000
    O198    O    0.59547   0.82997   0.74397   1.000
    O199    O    0.83010   0.59542   0.74396   1.000
    O200    O    0.83039   0.83032   0.74426   1.000
    O201    O    0.77174   0.68477   0.77162   1.000
    O202    O    0.68480   0.77168   0.77167   1.000
    O203    O    0.74411   0.59542   0.82993   1.000
    O204    O    0.83010   0.59551   0.83005   1.000
    O205    O    0.59547   0.74402   0.82996   1.000
    O206    O    0.59549   0.83010   0.83009   1.000
    O207    O    0.83038   0.74426   0.83034   1.000
    O208    O    0.74427   0.83035   0.83035   1.000
    O209    O    0.59119   0.65279   0.87767   1.000
    O210    O    0.65289   0.59110   0.87769   1.000
    O211    O    0.59126   0.87794   0.87793   1.000
    O212    O    0.87790   0.59129   0.87794   1.000
    O213    O    0.87808   0.65298   0.87803   1.000
    O214    O    0.65299   0.87805   0.87805   1.000
    O215    O    0.58232   0.58224   0.91751   1.000
    O216    O    0.91770   0.58240   0.91771   1.000
    O217    O    0.58239   0.91770   0.91770   1.000
    O218    O    0.57302   0.50725   0.95973   1.000
    O219    O    0.50730   0.57297   0.95981   1.000
    O220    O    0.50735   0.95978   0.95977   1.000
    O221    O    0.57305   0.95995   0.95994   1.000
    O222    O    0.95981   0.50737   0.95972   1.000
    O223    O    0.95991   0.57302   0.96001   1.000
    O224    O    0.96249   0.44651   0.96224   1.000
    O225    O    0.44643   0.96241   0.96240   1.000
    O226    O    0.62839   0.44637   0.96242   1.000
    O227    O    0.44642   0.62834   0.96266   1.000
    O228    O    0.62839   0.96287   0.96287   1.000
    O229    O    0.96276   0.62832   0.96303   1.000
    O230    O    0.22818   0.22818   0.22814   1.000
    O231    O    0.22828   0.22836   0.31523   1.000
    O232    O    0.77185   0.77182   0.77182   1.000
    O233    O    0.77174   0.77163   0.68474   1.000
loop_
    _geom_bond_atom_site_label_1
    _geom_bond_atom_site_label_2
    _geom_bond_distance
    _geom_bond_site_symmetry_2
    _ccdc_geom_bond_type
    C34    O106      0.54434      .   S
    C10    O106      0.54434      .   S
    C34    O107      0.70156      .   S
    C57    O107      0.70156      .   S
    C34    O108      0.69514  1_454   S
    C53    O108      0.69514      .   S
    C43    O109      0.54432      .   S
    C19    O109      0.54432      .   S
    C43    O110      0.70145      .   S
    C67    O110      0.70145      .   S
    C43    O111      0.69530  1_544   S
    C44    O111      0.69530      .   S
    C37    O112      0.54429      .   S
    C13    O112      0.54429      .   S
    C37    O113      0.70159      .   S
    C63    O113      0.70159      .   S
    C37    O114      0.69508  1_554   S
    C49    O114      0.69508      .   S
    C39    O115      0.54430      .   S
    C15    O115      0.54430      .   S
    C39    O116      0.70159      .   S
    C63    O116      0.70159      .   S
    C39    O117      0.69508      .   S
    C51    O117      0.69508  1_556   S
    C41    O118      0.54435      .   S
    C17    O118      0.54435      .   S
    C41    O119      0.70170      .   S
    C67    O119      0.70170      .   S
    C41    O120      0.69530      .   S
    C46    O120      0.69530  1_566   S
    C32    O121      0.54428      .   S
    C8     O121      0.54428      .   S
    C32    O122      0.70167      .   S
    C57    O122      0.70167      .   S
    C32    O123      0.69514      .   S
    C55    O123      0.69514  1_656   S
    C57    O124      0.74791      .   S
    C56    O124      0.74791      .   S
    C67    O125      0.74820      .   S
    C66    O125      0.74820      .   S
    C63    O126      0.74770      .   S
    C62    O126      0.74770      .   S
    C56    O127      0.63871      .   S
    C84    O127      0.63871      .   S
    C56    O128      0.63834      .   S
    C82    O128      0.63834      .   S
    C66    O129      0.63866      .   S
    C93    O129      0.63866      .   S
    C66    O130      0.63859      .   S
    C91    O130      0.63859      .   S
    C62    O131      0.63856      .   S
    C89    O131      0.63856      .   S
    C62    O132      0.63856      .   S
    C87    O132      0.63856      .   S
    C84    O133      0.98680      .   S
    C2     O133      0.98680      .   S
    C93    O134      0.98659      .   S
    C2     O134      0.98659      .   S
    C82    O135      0.98613      .   S
    C0     O135      0.98613      .   S
    C91    O136      0.98619      .   S
    C1     O136      0.98619      .   S
    C89    O137      0.98575      .   S
    C0     O137      0.98575      .   S
    C87    O138      0.98592      .   S
    C1     O138      0.98592      .   S
    C2     O139      0.98671      .   S
    C86    O139      0.98671      .   S
    C1     O140      0.98354      .   S
    C80    O140      0.98354      .   S
    C1     O141      0.98593      .   S
    C83    O141      0.98593      .   S
    C0     O142      0.98361      .   S
    C80    O142      0.98361      .   S
    C0     O143      0.98577      .   S
    C92    O143      0.98577      .   S
    C86    O144      0.63863      .   S
    C60    O144      0.63863      .   S
    C92    O145      0.63861      .   S
    C64    O145      0.63861      .   S
    C83    O146      0.63855      .   S
    C58    O146      0.63855      .   S
    C18    O147      0.54428      .   S
    C42    O147      0.54428      .   S
    C9     O148      0.54398      .   S
    C33    O148      0.54398      .   S
    C12    O149      0.54433      .   S
    C36    O149      0.54433      .   S
    C3     O150      0.98586      .   S
    C88    O150      0.98586      .   S
    C3     O151      0.98573      .   S
    C85    O151      0.98573      .   S
    C3     O152      0.98581      .   S
    C90    O152      0.98581      .   S
    C60    O153      0.63855      .   S
    C88    O153      0.63855      .   S
    C60    O154      0.74791      .   S
    C61    O154      0.74791      .   S
    C58    O155      0.63856      .   S
    C85    O155      0.63856      .   S
    C58    O156      0.74769      .   S
    C59    O156      0.74769      .   S
    C64    O157      0.63858      .   S
    C90    O157      0.63858      .   S
    C64    O158      0.74770      .   S
    C65    O158      0.74770      .   S
    C33    O159      0.70162      .   S
    C59    O159      0.70162      .   S
    C33    O160      0.69545  1_545   S
    C52    O160      0.69545      .   S
    C42    O161      0.70161      .   S
    C65    O161      0.70161      .   S
    C42    O162      0.69513      .   S
    C47    O162      0.69513  1_655   S
    C36    O163      0.70155      .   S
    C61    O163      0.70155      .   S
    C36    O164      0.69501  1_445   S
    C50    O164      0.69501      .   S
    C23    O165      0.54430      .   S
    C47    O165      0.54430      .   S
    C28    O166      0.54430      .   S
    C52    O166      0.54430      .   S
    C26    O167      0.54434      .   S
    C50    O167      0.54434      .   S
    C61    O168      0.70115      .   S
    C38    O168      0.70115      .   S
    C65    O169      0.70164      .   S
    C40    O169      0.70164      .   S
    C59    O170      0.70157      .   S
    C35    O170      0.70157      .   S
    C52    O171      0.70157      .   S
    C77    O171      0.70157      .   S
    C47    O172      0.70164      .   S
    C71    O172      0.70164      .   S
    C50    O173      0.70163      .   S
    C73    O173      0.70163      .   S
    C38    O174      0.54481      .   S
    C14    O174      0.54481      .   S
    C38    O175      0.69502      .   S
    C48    O175      0.69502  1_665   S
    C40    O176      0.54430      .   S
    C16    O176      0.54430      .   S
    C40    O177      0.69513      .   S
    C45    O177      0.69513  1_655   S
    C35    O178      0.54430      .   S
    C11    O178      0.54430      .   S
    C35    O179      0.69519      .   S
    C54    O179      0.69519  1_565   S
    C77    O180      0.70159      .   S
    C54    O180      0.70159      .   S
    C77    O181      0.74769      .   S
    C76    O181      0.74769      .   S
    C71    O182      0.70161      .   S
    C45    O182      0.70161      .   S
    C71    O183      0.74770      .   S
    C70    O183      0.74770      .   S
    C73    O184      0.70138      .   S
    C48    O184      0.70138      .   S
    C73    O185      0.74791      .   S
    C72    O185      0.74791      .   S
    C102   O186      0.63856      .   S
    C76    O186      0.63856      .   S
    C102   O187      0.98568      .   S
    C7     O187      0.98568      .   S
    C97    O188      0.63858      .   S
    C70    O188      0.63858      .   S
    C97    O189      0.98576      .   S
    C7     O189      0.98576      .   S
    C100   O190      0.63855      .   S
    C72    O190      0.63855      .   S
    C100   O191      0.98587      .   S
    C7     O191      0.98587      .   S
    C48    O192      0.54449      .   S
    C24    O192      0.54449      .   S
    C45    O193      0.54428      .   S
    C21    O193      0.54428      .   S
    C54    O194      0.54428      .   S
    C30    O194      0.54428      .   S
    C70    O195      0.63861      .   S
    C95    O195      0.63861      .   S
    C76    O196      0.63813      .   S
    C104   O196      0.63813      .   S
    C72    O197      0.63863      .   S
    C98    O197      0.63863      .   S
    C104   O198      0.98637      .   S
    C4     O198      0.98637      .   S
    C95    O199      0.98577      .   S
    C5     O199      0.98577      .   S
    C98    O200      0.98665      .   S
    C6     O200      0.98665      .   S
    C81    O201      0.98361      .   S
    C5     O201      0.98361      .   S
    C81    O202      0.98355      .   S
    C4     O202      0.98355      .   S
    C5     O203      0.98575      .   S
    C99    O203      0.98575      .   S
    C5     O204      0.98591      .   S
    C103   O204      0.98591      .   S
    C4     O205      0.98592      .   S
    C101   O205      0.98592      .   S
    C4     O206      0.98619      .   S
    C94    O206      0.98619      .   S
    C6     O207      0.98664      .   S
    C105   O207      0.98664      .   S
    C6     O208      0.98674      .   S
    C96    O208      0.98674      .   S
    C101   O209      0.63856      .   S
    C74    O209      0.63856      .   S
    C99    O210      0.63857      .   S
    C74    O210      0.63857      .   S
    C94    O211      0.63858      .   S
    C68    O211      0.63858      .   S
    C103   O212      0.63854      .   S
    C78    O212      0.63854      .   S
    C105   O213      0.63864      .   S
    C78    O213      0.63864      .   S
    C96    O214      0.63866      .   S
    C68    O214      0.63866      .   S
    C74    O215      0.74769      .   S
    C75    O215      0.74769      .   S
    C78    O216      0.74792      .   S
    C79    O216      0.74792      .   S
    C68    O217      0.74807      .   S
    C69    O217      0.74807      .   S
    C75    O218      0.70159      .   S
    C49    O218      0.70159      .   S
    C75    O219      0.70159      .   S
    C51    O219      0.70159      .   S
    C69    O220      0.70170      .   S
    C44    O220      0.70170      .   S
    C69    O221      0.70159      .   S
    C46    O221      0.70159      .   S
    C79    O222      0.70167      .   S
    C53    O222      0.70167      .   S
    C79    O223      0.70155      .   S
    C55    O223      0.70155      .   S
    C29    O224      0.54429      .   S
    C53    O224      0.54429      .   S
    C20    O225      0.54435      .   S
    C44    O225      0.54435      .   S
    C25    O226      0.54430      .   S
    C49    O226      0.54430      .   S
    C27    O227      0.54429      .   S
    C51    O227      0.54429      .   S
    C22    O228      0.54431      .   S
    C46    O228      0.54431      .   S
    C31    O229      0.54431      .   S
    C55    O229      0.54431      .   S
    C80    O230      0.98402      .   S
    C2     O230      0.98402      .   S
    C80    O231      0.98368      .   S
    C3     O231      0.98368      .   S
    C81    O232      0.98379      .   S
    C6     O232      0.98379      .   S
    C81    O233      0.98376      .   S
    C7     O233      0.98376      .   S
