# CIF file generated by openbabel 2.4.90, see http://openbabel.sf.net
data_I
_chemical_name_common ''
_cell_length_a 13.694
_cell_length_b 14.215
_cell_length_c 15.969
_cell_angle_alpha 90.002
_cell_angle_beta 89.985
_cell_angle_gamma 89.953
_space_group_name_H-M_alt 'P 1'
_space_group_name_Hall 'P 1'
loop_
    _symmetry_equiv_pos_as_xyz
    x,y,z
loop_
    _atom_site_label
    _atom_site_type_symbol
    _atom_site_fract_x
    _atom_site_fract_y
    _atom_site_fract_z
    _atom_site_occupancy
    C0      C    0.46590   0.23430   0.49984   1.000
    C1      C    0.96590   0.23430   0.49985   1.000
    C2      C    0.28380   0.76356   0.99989   1.000
    C3      C    0.78380   0.76356   0.99989   1.000
    C4      C    0.03382   0.73433   0.00047   1.000
    C5      C    0.53382   0.73434   0.00046   1.000
    C6      C    0.21588   0.26362   0.50075   1.000
    C7      C    0.71588   0.26362   0.50075   1.000
    C8      C    0.47557   0.92723   0.18984   1.000
    C9      C    0.97557   0.92729   0.18980   1.000
    C10     C    0.28603   0.96949   0.18064   1.000
    C11     C    0.78601   0.96958   0.18056   1.000
    C12     C    0.46322   0.04314   0.30811   1.000
    C13     C    0.96322   0.04321   0.30807   1.000
    C14     C    0.27369   0.08539   0.29893   1.000
    C15     C    0.77367   0.08548   0.29885   1.000
    C16     C    0.27392   0.07237   0.69136   1.000
    C17     C    0.77395   0.07230   0.69129   1.000
    C18     C    0.46377   0.02858   0.68076   1.000
    C19     C    0.96377   0.02851   0.68071   1.000
    C20     C    0.28647   0.95484   0.80833   1.000
    C21     C    0.78650   0.95477   0.80820   1.000
    C22     C    0.47631   0.91107   0.79776   1.000
    C23     C    0.97631   0.91100   0.79771   1.000
    C24     C    0.02397   0.42646   0.31017   1.000
    C25     C    0.52396   0.42637   0.31010   1.000
    C26     C    0.21341   0.46865   0.31875   1.000
    C27     C    0.71343   0.46876   0.31886   1.000
    C28     C    0.03673   0.54385   0.19313   1.000
    C29     C    0.53673   0.54378   0.19306   1.000
    C30     C    0.22617   0.58605   0.20171   1.000
    C31     C    0.72618   0.58617   0.20182   1.000
    C32     C    0.22588   0.57200   0.81006   1.000
    C33     C    0.72587   0.57190   0.81015   1.000
    C34     C    0.03610   0.52770   0.81980   1.000
    C35     C    0.53611   0.52778   0.81974   1.000
    C36     C    0.21319   0.45607   0.69183   1.000
    C37     C    0.71318   0.45598   0.69192   1.000
    C38     C    0.02340   0.41176   0.70159   1.000
    C39     C    0.52342   0.41184   0.70152   1.000
    C40     C    0.13876   0.87102   0.11010   1.000
    C41     C    0.63875   0.87102   0.11009   1.000
    C42     C    0.13151   0.94150   0.17874   1.000
    C43     C    0.63151   0.94152   0.17872   1.000
    C44     C    0.04016   0.96254   0.21413   1.000
    C45     C    0.54016   0.96251   0.21414   1.000
    C46     C    0.21584   0.98615   0.20906   1.000
    C47     C    0.71582   0.98620   0.20901   1.000
    C48     C    0.11080   0.13827   0.38130   1.000
    C49     C    0.61080   0.13827   0.38129   1.000
    C50     C    0.11779   0.07083   0.31027   1.000
    C51     C    0.61778   0.07084   0.31020   1.000
    C52     C    0.03337   0.02674   0.27949   1.000
    C53     C    0.53337   0.02671   0.27951   1.000
    C54     C    0.20905   0.05036   0.27444   1.000
    C55     C    0.70903   0.05041   0.27439   1.000
    C56     C    0.11096   0.12844   0.61140   1.000
    C57     C    0.61097   0.12844   0.61148   1.000
    C58     C    0.11812   0.05742   0.67966   1.000
    C59     C    0.61813   0.05742   0.67965   1.000
    C60     C    0.20944   0.03641   0.71500   1.000
    C61     C    0.70946   0.03637   0.71506   1.000
    C62     C    0.03392   0.01188   0.70918   1.000
    C63     C    0.53393   0.01192   0.70920   1.000
    C64     C    0.13894   0.85807   0.88009   1.000
    C65     C    0.63895   0.85807   0.88009   1.000
    C66     C    0.13206   0.92624   0.80964   1.000
    C67     C    0.63208   0.92624   0.80960   1.000
    C68     C    0.21635   0.97128   0.77971   1.000
    C69     C    0.71637   0.97124   0.77967   1.000
    C70     C    0.04083   0.94675   0.77381   1.000
    C71     C    0.54084   0.94678   0.77383   1.000
    C72     C    0.36068   0.36955   0.38900   1.000
    C73     C    0.86068   0.36960   0.38912   1.000
    C74     C    0.36796   0.44053   0.32085   1.000
    C75     C    0.86797   0.44061   0.32092   1.000
    C76     C    0.45943   0.46196   0.28592   1.000
    C77     C    0.95944   0.46204   0.28600   1.000
    C78     C    0.28371   0.48560   0.29073   1.000
    C79     C    0.78373   0.48570   0.29083   1.000
    C80     C    0.38906   0.63979   0.12029   1.000
    C81     C    0.88907   0.63983   0.12033   1.000
    C82     C    0.38213   0.57162   0.19075   1.000
    C83     C    0.88214   0.57169   0.19082   1.000
    C84     C    0.46646   0.52703   0.22126   1.000
    C85     C    0.96647   0.52712   0.22134   1.000
    C86     C    0.29074   0.55068   0.22607   1.000
    C87     C    0.79076   0.55078   0.22617   1.000
    C88     C    0.38895   0.62704   0.89012   1.000
    C89     C    0.88895   0.62700   0.89015   1.000
    C90     C    0.38169   0.55671   0.82100   1.000
    C91     C    0.88169   0.55663   0.82146   1.000
    C92     C    0.29034   0.53628   0.78585   1.000
    C93     C    0.79032   0.53618   0.78593   1.000
    C94     C    0.46590   0.51156   0.79123   1.000
    C95     C    0.96589   0.51148   0.79130   1.000
    C96     C    0.36067   0.35977   0.61913   1.000
    C97     C    0.86066   0.35973   0.61917   1.000
    C98     C    0.36764   0.42739   0.68990   1.000
    C99     C    0.86763   0.42731   0.69005   1.000
    C100    C    0.28336   0.47207   0.72052   1.000
    C101    C    0.78334   0.47198   0.72060   1.000
    C102    C    0.45892   0.44734   0.72590   1.000
    C103    C    0.95891   0.44726   0.72597   1.000
    C104    C    0.35460   0.19332   0.49821   1.000
    C105    C    0.85461   0.19331   0.49820   1.000
    C106    C    0.22396   0.85081   0.08200   1.000
    C107    C    0.72396   0.85082   0.08280   1.000
    C108    C    0.02571   0.15675   0.40969   1.000
    C109    C    0.52571   0.15673   0.40970   1.000
    C110    C    0.05874   0.83519   0.08381   1.000
    C111    C    0.55874   0.83519   0.08381   1.000
    C112    C    0.19088   0.17270   0.40891   1.000
    C113    C    0.69088   0.17272   0.40889   1.000
    C114    C    0.39505   0.80461   0.99710   1.000
    C115    C    0.89505   0.80459   0.99713   1.000
    C116    C    0.02594   0.14835   0.58370   1.000
    C117    C    0.52595   0.14835   0.58373   1.000
    C118    C    0.22382   0.83966   0.90890   1.000
    C119    C    0.72383   0.83966   0.90890   1.000
    C120    C    0.19107   0.16486   0.58601   1.000
    C121    C    0.69108   0.16485   0.58000   1.000
    C122    C    0.05875   0.82306   0.90690   1.000
    C123    C    0.55877   0.82307   0.90695   1.000
    C124    C    0.14511   0.69323   0.00310   1.000
    C125    C    0.64511   0.69324   0.00318   1.000
    C126    C    0.27558   0.34944   0.41650   1.000
    C127    C    0.77558   0.34945   0.41651   1.000
    C128    C    0.47396   0.65827   0.09158   1.000
    C129    C    0.97396   0.65829   0.09161   1.000
    C130    C    0.44076   0.33335   0.41498   1.000
    C131    C    0.94077   0.33339   0.41503   1.000
    C132    C    0.30886   0.67475   0.09329   1.000
    C133    C    0.80886   0.67476   0.09331   1.000
    C134    C    0.10452   0.30458   0.50258   1.000
    C135    C    0.60452   0.30459   0.50257   1.000
    C136    C    0.47411   0.64708   0.91741   1.000
    C137    C    0.97411   0.64706   0.91744   1.000
    C138    C    0.27569   0.34147   0.59053   1.000
    C139    C    0.77569   0.34146   0.59054   1.000
    C140    C    0.30887   0.66288   0.91642   1.000
    C141    C    0.80887   0.66287   0.91644   1.000
    C142    C    0.44081   0.32496   0.59180   1.000
    C143    C    0.94081   0.32493   0.59190   1.000
    O144    O    0.58947   0.71379   0.00182   1.000
    O145    O    0.54628   0.78476   0.04213   1.000
    O146    O    0.50389   0.69631   0.04602   1.000
    O147    O    0.54629   0.77870   0.95370   1.000
    O148    O    0.50396   0.69071   0.95893   1.000
    O149    O    0.46443   0.76947   0.99878   1.000
    O150    O    0.08946   0.71378   0.00179   1.000
    O151    O    0.04628   0.78476   0.04214   1.000
    O152    O    0.00389   0.69631   0.04604   1.000
    O153    O    0.04629   0.77870   0.95369   1.000
    O154    O    0.00396   0.69069   0.95895   1.000
    O155    O    0.96444   0.76946   0.99880   1.000
    O156    O    0.21445   0.72840   0.00149   1.000
    O157    O    0.71446   0.72840   0.00153   1.000
    O158    O    0.18136   0.86092   0.09605   1.000
    O159    O    0.25388   0.80719   0.04095   1.000
    O160    O    0.68136   0.86092   0.09645   1.000
    O161    O    0.75388   0.80719   0.04134   1.000
    O162    O    0.09875   0.85311   0.09695   1.000
    O163    O    0.59875   0.85311   0.09695   1.000
    O164    O    0.43151   0.64903   0.10593   1.000
    O165    O    0.93151   0.64906   0.10597   1.000
    O166    O    0.34896   0.65727   0.10679   1.000
    O167    O    0.29633   0.71916   0.04659   1.000
    O168    O    0.84896   0.65729   0.10682   1.000
    O169    O    0.79633   0.71916   0.04660   1.000
    O170    O    0.63513   0.90627   0.14440   1.000
    O171    O    0.13513   0.90626   0.14442   1.000
    O172    O    0.38560   0.60570   0.15552   1.000
    O173    O    0.88560   0.60576   0.15557   1.000
    O174    O    0.67366   0.96386   0.19387   1.000
    O175    O    0.58583   0.95202   0.19643   1.000
    O176    O    0.17367   0.96383   0.19390   1.000
    O177    O    0.08584   0.95202   0.19643   1.000
    O178    O    0.75092   0.97789   0.19478   1.000
    O179    O    0.25093   0.97782   0.19485   1.000
    O180    O    0.00786   0.94492   0.20197   1.000
    O181    O    0.50787   0.94487   0.20199   1.000
    O182    O    0.42429   0.54933   0.20600   1.000
    O183    O    0.33643   0.56115   0.20841   1.000
    O184    O    0.92430   0.54941   0.20608   1.000
    O185    O    0.83645   0.56124   0.20849   1.000
    O186    O    0.50159   0.53540   0.20716   1.000
    O187    O    0.00160   0.53548   0.20724   1.000
    O188    O    0.25846   0.56837   0.21389   1.000
    O189    O    0.75847   0.56848   0.21400   1.000
    O190    O    0.71243   0.01831   0.24170   1.000
    O191    O    0.21244   0.01825   0.24175   1.000
    O192    O    0.03676   0.99464   0.24681   1.000
    O193    O    0.53677   0.99461   0.24682   1.000
    O194    O    0.46295   0.49450   0.25359   1.000
    O195    O    0.96296   0.49458   0.25367   1.000
    O196    O    0.28723   0.51814   0.25840   1.000
    O197    O    0.78724   0.51824   0.25850   1.000
    O198    O    0.74135   0.06795   0.28662   1.000
    O199    O    0.66341   0.06062   0.29229   1.000
    O200    O    0.24137   0.06787   0.28669   1.000
    O201    O    0.16342   0.06059   0.29235   1.000
    O202    O    0.99830   0.03497   0.29378   1.000
    O203    O    0.07558   0.04878   0.29488   1.000
    O204    O    0.49830   0.03493   0.29381   1.000
    O205    O    0.57557   0.04878   0.29485   1.000
    O206    O    0.49170   0.44417   0.29801   1.000
    O207    O    0.41370   0.45124   0.30339   1.000
    O208    O    0.99171   0.44425   0.29808   1.000
    O209    O    0.91371   0.45133   0.30346   1.000
    O210    O    0.24856   0.47712   0.30474   1.000
    O211    O    0.32584   0.46306   0.30579   1.000
    O212    O    0.74858   0.47723   0.30484   1.000
    O213    O    0.82585   0.46316   0.30587   1.000
    O214    O    0.61429   0.10455   0.34574   1.000
    O215    O    0.11429   0.10455   0.34578   1.000
    O216    O    0.36432   0.40504   0.35492   1.000
    O217    O    0.86433   0.40510   0.35502   1.000
    O218    O    0.65084   0.15549   0.39509   1.000
    O219    O    0.56825   0.14750   0.39549   1.000
    O220    O    0.15084   0.15548   0.39510   1.000
    O221    O    0.06826   0.14751   0.39549   1.000
    O222    O    0.40072   0.35145   0.40199   1.000
    O223    O    0.31813   0.35949   0.40275   1.000
    O224    O    0.90073   0.35149   0.40208   1.000
    O225    O    0.81813   0.35952   0.40281   1.000
    O226    O    0.70338   0.21817   0.45482   1.000
    O227    O    0.20338   0.21816   0.45483   1.000
    O228    O    0.99581   0.19553   0.45477   1.000
    O229    O    0.49581   0.19552   0.45477   1.000
    O230    O    0.45333   0.28382   0.45741   1.000
    O231    O    0.95333   0.28385   0.45744   1.000
    O232    O    0.24573   0.30653   0.45863   1.000
    O233    O    0.74573   0.30653   0.45863   1.000
    O234    O    0.91025   0.21381   0.49902   1.000
    O235    O    0.78525   0.22847   0.49948   1.000
    O236    O    0.41025   0.21381   0.49902   1.000
    O237    O    0.28524   0.22847   0.49948   1.000
    O238    O    0.53521   0.26944   0.50121   1.000
    O239    O    0.49593   0.19133   0.54178   1.000
    O240    O    0.45335   0.27963   0.54582   1.000
    O241    O    0.03521   0.26944   0.50122   1.000
    O242    O    0.99592   0.19132   0.54178   1.000
    O243    O    0.95335   0.27962   0.54587   1.000
    O244    O    0.16020   0.28410   0.50167   1.000
    O245    O    0.20348   0.21424   0.54338   1.000
    O246    O    0.24578   0.30254   0.54564   1.000
    O247    O    0.66020   0.28410   0.50166   1.000
    O248    O    0.70348   0.21423   0.54037   1.000
    O249    O    0.74578   0.30254   0.54564   1.000
    O250    O    0.65103   0.14664   0.59574   1.000
    O251    O    0.06845   0.13839   0.59755   1.000
    O252    O    0.56846   0.13840   0.59760   1.000
    O253    O    0.15102   0.14665   0.59871   1.000
    O254    O    0.31818   0.35062   0.60483   1.000
    O255    O    0.81817   0.35059   0.60485   1.000
    O256    O    0.40074   0.34236   0.60547   1.000
    O257    O    0.90073   0.34233   0.60554   1.000
    O258    O    0.11454   0.09293   0.64553   1.000
    O259    O    0.61455   0.09293   0.64557   1.000
    O260    O    0.36415   0.39358   0.65451   1.000
    O261    O    0.86415   0.39352   0.65461   1.000
    O262    O    0.57603   0.03467   0.69442   1.000
    O263    O    0.66380   0.04690   0.69736   1.000
    O264    O    0.07602   0.03465   0.69442   1.000
    O265    O    0.16378   0.04691   0.69733   1.000
    O266    O    0.99885   0.02020   0.69495   1.000
    O267    O    0.49885   0.02025   0.69498   1.000
    O268    O    0.32550   0.44973   0.70521   1.000
    O269    O    0.41328   0.43736   0.70790   1.000
    O270    O    0.82549   0.44965   0.70533   1.000
    O271    O    0.91327   0.43729   0.70801   1.000
    O272    O    0.74171   0.05434   0.70317   1.000
    O273    O    0.24168   0.05439   0.70318   1.000
    O274    O    0.24828   0.46407   0.70617   1.000
    O275    O    0.74826   0.46398   0.70626   1.000
    O276    O    0.49117   0.42959   0.71371   1.000
    O277    O    0.99116   0.42951   0.71378   1.000
    O278    O    0.03738   0.97931   0.74150   1.000
    O279    O    0.53739   0.97935   0.74151   1.000
    O280    O    0.21290   0.00384   0.74735   1.000
    O281    O    0.71292   0.00381   0.74737   1.000
    O282    O    0.28685   0.50418   0.75319   1.000
    O283    O    0.78683   0.50408   0.75327   1.000
    O284    O    0.46241   0.47945   0.75857   1.000
    O285    O    0.96240   0.47937   0.75864   1.000
    O286    O    0.00857   0.92887   0.78576   1.000
    O287    O    0.08645   0.93649   0.79172   1.000
    O288    O    0.50857   0.92892   0.78580   1.000
    O289    O    0.58646   0.93651   0.79171   1.000
    O290    O    0.75144   0.96301   0.79393   1.000
    O291    O    0.67423   0.94874   0.79463   1.000
    O292    O    0.25141   0.96306   0.79402   1.000
    O293    O    0.17421   0.94876   0.79468   1.000
    O294    O    0.25811   0.55414   0.79795   1.000
    O295    O    0.33602   0.54649   0.80342   1.000
    O296    O    0.75810   0.55404   0.79804   1.000
    O297    O    0.83601   0.54641   0.80370   1.000
    O298    O    0.50101   0.51967   0.80549   1.000
    O299    O    0.42380   0.53413   0.80611   1.000
    O300    O    0.00100   0.51959   0.80555   1.000
    O301    O    0.92379   0.53406   0.80638   1.000
    O302    O    0.63552   0.89215   0.84485   1.000
    O303    O    0.13550   0.89215   0.84486   1.000
    O304    O    0.38532   0.59187   0.85556   1.000
    O305    O    0.88532   0.59182   0.85580   1.000
    O306    O    0.09884   0.84056   0.89350   1.000
    O307    O    0.18138   0.84886   0.89449   1.000
    O308    O    0.59886   0.84057   0.89352   1.000
    O309    O    0.68139   0.84886   0.89449   1.000
    O310    O    0.34891   0.64496   0.90327   1.000
    O311    O    0.43153   0.63706   0.90376   1.000
    O312    O    0.84891   0.64493   0.90329   1.000
    O313    O    0.93153   0.63703   0.90379   1.000
    O314    O    0.75382   0.80161   0.95439   1.000
    O315    O    0.25381   0.80161   0.95439   1.000
    O316    O    0.29633   0.71322   0.95815   1.000
    O317    O    0.79634   0.71321   0.95817   1.000
    O318    O    0.33942   0.78408   0.99849   1.000
    O319    O    0.83943   0.78407   0.99851   1.000
loop_
    _geom_bond_atom_site_label_1
    _geom_bond_atom_site_label_2
    _geom_bond_distance
    _geom_bond_site_symmetry_2
    _ccdc_geom_bond_type
    C5     O144      0.81613      .   S
    C125   O144      0.81613      .   S
    C5     O145      0.99299      .   S
    C111   O145      0.99299      .   S
    C5     O146      0.99490      .   S
    C128   O146      0.99490      .   S
    C5     O147      0.99222  1_554   S
    C123   O147      0.99222      .   S
    C5     O148      0.99600  1_554   S
    C136   O148      0.99600      .   S
    C5     O149      1.07343  1_554   S
    C114   O149      1.07343      .   S
    C4     O150      0.81611      .   S
    C124   O150      0.81611      .   S
    C4     O151      0.99299      .   S
    C110   O151      0.99299      .   S
    C4     O152      0.99491      .   S
    C129   O152      0.99491  1_655   S
    C4     O153      0.99255  1_554   S
    C122   O153      0.99255      .   S
    C4     O154      0.99598  1_554   S
    C137   O154      0.99598  1_655   S
    C4     O155      1.07334  1_454   S
    C115   O155      1.07334      .   S
    C124   O156      1.07384      .   S
    C2     O156      1.07384  1_556   S
    C125   O157      1.07378      .   S
    C3     O157      1.07378  1_556   S
    C106   O158      0.64119      .   S
    C40    O158      0.64119      .   S
    C106   O159      0.99078      .   S
    C2     O159      0.99078  1_556   S
    C107   O160      0.63895      .   S
    C41    O160      0.63895      .   S
    C107   O161      0.99509      .   S
    C3     O161      0.99509  1_556   S
    C110   O162      0.63981      .   S
    C40    O162      0.63981      .   S
    C111   O163      0.63980      .   S
    C41    O163      0.63980      .   S
    C128   O164      0.63855      .   S
    C80    O164      0.63855      .   S
    C129   O165      0.63855      .   S
    C81    O165      0.63855      .   S
    C132   O166      0.64001      .   S
    C80    O166      0.64001      .   S
    C132   O167      0.99194      .   S
    C2     O167      0.99194  1_556   S
    C133   O168      0.64000      .   S
    C81    O168      0.64000      .   S
    C133   O169      0.99200      .   S
    C3     O169      0.99200  1_556   S
    C41    O170      0.74411      .   S
    C43    O170      0.74411      .   S
    C40    O171      0.74412      .   S
    C42    O171      0.74412      .   S
    C80    O172      0.74403      .   S
    C82    O172      0.74403      .   S
    C81    O173      0.74403      .   S
    C83    O173      0.74403      .   S
    C43    O174      0.70215      .   S
    C47    O174      0.70215      .   S
    C43    O175      0.70227      .   S
    C45    O175      0.70227      .   S
    C42    O176      0.70214      .   S
    C46    O176      0.70214      .   S
    C42    O177      0.70228      .   S
    C44    O177      0.70228      .   S
    C11    O178      0.54440      .   S
    C47    O178      0.54440      .   S
    C10    O179      0.54439      .   S
    C46    O179      0.54439      .   S
    C9     O180      0.54436  1_655   S
    C44    O180      0.54436      .   S
    C8     O181      0.54437      .   S
    C45    O181      0.54437      .   S
    C82    O182      0.70211      .   S
    C84    O182      0.70211      .   S
    C82    O183      0.70233      .   S
    C86    O183      0.70233      .   S
    C83    O184      0.70214      .   S
    C85    O184      0.70214      .   S
    C83    O185      0.70235      .   S
    C87    O185      0.70235      .   S
    C29    O186      0.54439      .   S
    C84    O186      0.54439      .   S
    C28    O187      0.54436      .   S
    C85    O187      0.54436  1_655   S
    C30    O188      0.54438      .   S
    C86    O188      0.54438      .   S
    C31    O189      0.54439      .   S
    C87    O189      0.54439      .   S
    C47    O190      0.69488  1_565   S
    C55    O190      0.69488      .   S
    C46    O191      0.69489  1_565   S
    C54    O191      0.69489      .   S
    C44    O192      0.69474      .   S
    C52    O192      0.69474  1_545   S
    C45    O193      0.69480      .   S
    C53    O193      0.69480  1_545   S
    C84    O194      0.69486      .   S
    C76    O194      0.69486      .   S
    C85    O195      0.69484      .   S
    C77    O195      0.69484      .   S
    C86    O196      0.69489      .   S
    C78    O196      0.69489      .   S
    C87    O197      0.69488      .   S
    C79    O197      0.69488      .   S
    C55    O198      0.54441      .   S
    C15    O198      0.54441      .   S
    C55    O199      0.70211      .   S
    C51    O199      0.70211      .   S
    C54    O200      0.54441      .   S
    C14    O200      0.54441      .   S
    C54    O201      0.70230      .   S
    C50    O201      0.70230      .   S
    C52    O202      0.54435  1_455   S
    C13    O202      0.54435      .   S
    C52    O203      0.70214      .   S
    C50    O203      0.70214      .   S
    C53    O204      0.54435      .   S
    C12    O204      0.54435      .   S
    C53    O205      0.70199      .   S
    C51    O205      0.70199      .   S
    C76    O206      0.54437      .   S
    C25    O206      0.54437      .   S
    C76    O207      0.70236      .   S
    C74    O207      0.70236      .   S
    C77    O208      0.54434      .   S
    C24    O208      0.54434  1_455   S
    C77    O209      0.70233      .   S
    C75    O209      0.70233      .   S
    C78    O210      0.54438      .   S
    C26    O210      0.54438      .   S
    C78    O211      0.70213      .   S
    C74    O211      0.70213      .   S
    C79    O212      0.54437      .   S
    C27    O212      0.54437      .   S
    C79    O213      0.70211      .   S
    C75    O213      0.70211      .   S
    C51    O214      0.74438      .   S
    C49    O214      0.74438      .   S
    C50    O215      0.74406      .   S
    C48    O215      0.74406      .   S
    C74    O216      0.74372      .   S
    C72    O216      0.74372      .   S
    C75    O217      0.74419      .   S
    C73    O217      0.74419      .   S
    C49    O218      0.63989      .   S
    C113   O218      0.63989      .   S
    C49    O219      0.63866      .   S
    C109   O219      0.63866      .   S
    C48    O220      0.63990      .   S
    C112   O220      0.63990      .   S
    C48    O221      0.63863      .   S
    C108   O221      0.63863      .   S
    C72    O222      0.64013      .   S
    C130   O222      0.64013      .   S
    C72    O223      0.63891      .   S
    C126   O223      0.63891      .   S
    C73    O224      0.63994      .   S
    C131   O224      0.63994      .   S
    C73    O225      0.63871      .   S
    C127   O225      0.63871      .   S
    C113   O226      0.99243      .   S
    C7     O226      0.99243      .   S
    C112   O227      0.99237      .   S
    C6     O227      0.99237      .   S
    C108   O228      0.99462  1_455   S
    C1     O228      0.99462      .   S
    C109   O229      0.99453      .   S
    C0     O229      0.99453      .   S
    C130   O230      0.99207      .   S
    C0     O230      0.99207      .   S
    C131   O231      0.99202      .   S
    C1     O231      0.99202      .   S
    C126   O232      0.99596      .   S
    C6     O232      0.99596      .   S
    C127   O233      0.99596      .   S
    C7     O233      0.99596      .   S
    C105   O234      0.81613      .   S
    C1     O234      0.81613      .   S
    C105   O235      1.07310      .   S
    C7     O235      1.07310      .   S
    C104   O236      0.81613      .   S
    C0     O236      0.81613      .   S
    C104   O237      1.07305      .   S
    C6     O237      1.07305      .   S
    C0     O238      1.07318      .   S
    C135   O238      1.07318      .   S
    C0     O239      0.99531      .   S
    C117   O239      0.99531      .   S
    C0     O240      0.99176      .   S
    C142   O240      0.99176      .   S
    C1     O241      1.07315  1_655   S
    C134   O241      1.07315      .   S
    C1     O242      0.99513      .   S
    C116   O242      0.99513  1_455   S
    C1     O243      0.99213      .   S
    C143   O243      0.99213      .   S
    C6     O244      0.81610      .   S
    C134   O244      0.81610      .   S
    C6     O245      0.99257      .   S
    C120   O245      0.99257      .   S
    C6     O246      0.99407      .   S
    C138   O246      0.99407      .   S
    C7     O247      0.81610      .   S
    C135   O247      0.81610      .   S
    C7     O248      0.96032      .   S
    C121   O248      0.96032      .   S
    C7     O249      0.99411      .   S
    C139   O249      0.99411      .   S
    C121   O250      0.65664      .   S
    C57    O250      0.65664      .   S
    C116   O251      0.63854      .   S
    C56    O251      0.63854      .   S
    C117   O252      0.63871      .   S
    C57    O252      0.63871      .   S
    C120   O253      0.63963      .   S
    C56    O253      0.63963      .   S
    C138   O254      0.63861      .   S
    C96    O254      0.63861      .   S
    C139   O255      0.63861      .   S
    C97    O255      0.63861      .   S
    C142   O256      0.64003      .   S
    C96    O256      0.64003      .   S
    C143   O257      0.63987      .   S
    C97    O257      0.63987      .   S
    C56    O258      0.74448      .   S
    C58    O258      0.74448      .   S
    C57    O259      0.74395      .   S
    C59    O259      0.74395      .   S
    C96    O260      0.74335      .   S
    C98    O260      0.74335      .   S
    C97    O261      0.74387      .   S
    C99    O261      0.74387      .   S
    C59    O262      0.70205      .   S
    C63    O262      0.70205      .   S
    C59    O263      0.70234      .   S
    C61    O263      0.70234      .   S
    C58    O264      0.70207      .   S
    C62    O264      0.70207      .   S
    C58    O265      0.70201      .   S
    C60    O265      0.70201      .   S
    C19    O266      0.54439      .   S
    C62    O266      0.54439  1_455   S
    C18    O267      0.54439      .   S
    C63    O267      0.54439      .   S
    C98    O268      0.70235      .   S
    C100   O268      0.70235      .   S
    C98    O269      0.70256      .   S
    C102   O269      0.70256      .   S
    C99    O270      0.70210      .   S
    C101   O270      0.70210      .   S
    C99    O271      0.70229      .   S
    C103   O271      0.70229      .   S
    C17    O272      0.54439      .   S
    C61    O272      0.54439      .   S
    C16    O273      0.54410      .   S
    C60    O273      0.54410      .   S
    C36    O274      0.54439      .   S
    C100   O274      0.54439      .   S
    C37    O275      0.54438      .   S
    C101   O275      0.54438      .   S
    C39    O276      0.54440      .   S
    C102   O276      0.54440      .   S
    C38    O277      0.54438  1_455   S
    C103   O277      0.54438      .   S
    C62    O278      0.69486  1_545   S
    C70    O278      0.69486      .   S
    C63    O279      0.69487  1_545   S
    C71    O279      0.69487      .   S
    C60    O280      0.69532      .   S
    C68    O280      0.69532  1_565   S
    C61    O281      0.69474      .   S
    C69    O281      0.69474  1_565   S
    C100   O282      0.69473      .   S
    C92    O282      0.69473      .   S
    C101   O283      0.69472      .   S
    C93    O283      0.69472      .   S
    C102   O284      0.69481      .   S
    C94    O284      0.69481      .   S
    C103   O285      0.69481      .   S
    C95    O285      0.69481      .   S
    C70    O286      0.54435      .   S
    C23    O286      0.54435  1_655   S
    C70    O287      0.70230      .   S
    C66    O287      0.70230      .   S
    C71    O288      0.54438      .   S
    C22    O288      0.54438      .   S
    C71    O289      0.70221      .   S
    C67    O289      0.70221      .   S
    C69    O290      0.54416      .   S
    C21    O290      0.54416      .   S
    C69    O291      0.70198      .   S
    C67    O291      0.70198      .   S
    C68    O292      0.54438      .   S
    C20    O292      0.54438      .   S
    C68    O293      0.70207      .   S
    C66    O293      0.70207      .   S
    C92    O294      0.54437      .   S
    C32    O294      0.54437      .   S
    C92    O295      0.70099      .   S
    C90    O295      0.70099      .   S
    C93    O296      0.54438      .   S
    C33    O296      0.54438      .   S
    C93    O297      0.70226      .   S
    C91    O297      0.70226      .   S
    C94    O298      0.54439      .   S
    C35    O298      0.54439      .   S
    C94    O299      0.70105      .   S
    C90    O299      0.70105      .   S
    C95    O300      0.54435  1_655   S
    C34    O300      0.54435      .   S
    C95    O301      0.70212      .   S
    C91    O301      0.70212      .   S
    C67    O302      0.74413      .   S
    C65    O302      0.74413      .   S
    C66    O303      0.74390      .   S
    C64    O303      0.74390      .   S
    C90    O304      0.74632      .   S
    C88    O304      0.74632      .   S
    C91    O305      0.74397      .   S
    C89    O305      0.74397      .   S
    C64    O306      0.63978      .   S
    C122   O306      0.63978      .   S
    C64    O307      0.63855      .   S
    C118   O307      0.63855      .   S
    C65    O308      0.63991      .   S
    C123   O308      0.63991      .   S
    C65    O309      0.63855      .   S
    C119   O309      0.63855      .   S
    C88    O310      0.63983      .   S
    C140   O310      0.63983      .   S
    C88    O311      0.63868      .   S
    C136   O311      0.63868      .   S
    C89    O312      0.63986      .   S
    C141   O312      0.63986      .   S
    C89    O313      0.63871      .   S
    C137   O313      0.63871      .   S
    C119   O314      0.99438      .   S
    C3     O314      0.99438      .   S
    C118   O315      0.99441      .   S
    C2     O315      0.99441      .   S
    C140   O316      0.99269      .   S
    C2     O316      0.99269      .   S
    C141   O317      0.99262      .   S
    C3     O317      0.99262      .   S
    C114   O318      0.81617      .   S
    C2     O318      0.81617      .   S
    C115   O319      0.81615      .   S
    C3     O319      0.81615      .   S
