# CIF file generated by openbabel 2.4.90, see http://openbabel.sf.net
data_I
_chemical_name_common ''
_cell_length_a 13.694
_cell_length_b 14.215
_cell_length_c 15.969
_cell_angle_alpha 90.002
_cell_angle_beta 89.985
_cell_angle_gamma 89.953
_space_group_name_H-M_alt 'P 1'
_space_group_name_Hall 'P 1'
loop_
    _symmetry_equiv_pos_as_xyz
    x,y,z
loop_
    _atom_site_label
    _atom_site_type_symbol
    _atom_site_fract_x
    _atom_site_fract_y
    _atom_site_fract_z
    _atom_site_occupancy
    Zr0     Zr   0.46590   0.23430   0.49984   1.000
    Zr1     Zr   0.96590   0.23430   0.49985   1.000
    Zr2     Zr   0.28380   0.76356   0.99989   1.000
    Zr3     Zr   0.78380   0.76356   0.99989   1.000
    Zr4     Zr   0.03382   0.73433   0.00047   1.000
    Zr5     Zr   0.53382   0.73434   0.00046   1.000
    Zr6     Zr   0.21588   0.26362   0.50075   1.000
    Zr7     Zr   0.71588   0.26362   0.50075   1.000
    N8      N    0.12469   0.00552   0.24496   1.000
    O9      O    0.06025   0.10052   0.34987   1.000
    O10     O    0.16404   0.11184   0.34990   1.000
    O11     O    0.18929   0.90635   0.14295   1.000
    O12     O    0.08549   0.89514   0.14355   1.000
    N13     N    0.37498   0.50546   0.25530   1.000
    O14     O    0.43943   0.60088   0.15066   1.000
    O15     O    0.33565   0.61231   0.15095   1.000
    O16     O    0.41415   0.39464   0.35636   1.000
    O17     O    0.31035   0.40600   0.35696   1.000
    N18     N    0.87471   0.49258   0.75528   1.000
    O19     O    0.83552   0.60289   0.85672   1.000
    O20     O    0.81025   0.39756   0.65046   1.000
    O21     O    0.93934   0.59164   0.85712   1.000
    O22     O    0.91403   0.38610   0.65058   1.000
    N23     N    0.62469   0.00552   0.24499   1.000
    O24     O    0.58548   0.89514   0.14356   1.000
    O25     O    0.66403   0.11185   0.34991   1.000
    O26     O    0.56025   0.10052   0.34988   1.000
    O27     O    0.68928   0.90636   0.14317   1.000
    N28     N    0.12504   0.99245   0.74513   1.000
    O29     O    0.18943   0.89703   0.84976   1.000
    O30     O    0.06048   0.09189   0.64345   1.000
    O31     O    0.16426   0.10334   0.64426   1.000
    O32     O    0.08566   0.88557   0.84941   1.000
    N33     N    0.87498   0.50553   0.25537   1.000
    O34     O    0.83566   0.61235   0.15099   1.000
    O35     O    0.91416   0.39469   0.35641   1.000
    O36     O    0.81036   0.40603   0.35700   1.000
    O37     O    0.93944   0.60092   0.15071   1.000
    N38     N    0.62506   0.99245   0.74476   1.000
    O39     O    0.56049   0.09189   0.64327   1.000
    O40     O    0.66427   0.10334   0.64257   1.000
    O41     O    0.68944   0.89703   0.84958   1.000
    O42     O    0.58568   0.88557   0.84923   1.000
    N43     N    0.37472   0.49264   0.75518   1.000
    O44     O    0.33553   0.60293   0.85667   1.000
    O45     O    0.31025   0.39759   0.65041   1.000
    O46     O    0.43934   0.59167   0.85706   1.000
    O47     O    0.41404   0.38613   0.65050   1.000
    N48     N    0.35460   0.19332   0.49821   1.000
    O49     O    0.38243   0.20357   0.49862   1.000
    O50     O    0.31992   0.21090   0.49884   1.000
    N51     N    0.89505   0.80459   0.99713   1.000
    O52     O    0.92974   0.78703   0.99796   1.000
    O53     O    0.86724   0.79433   0.99782   1.000
    N54     N    0.39505   0.80461   0.99710   1.000
    O55     O    0.42974   0.78704   0.99794   1.000
    O56     O    0.36724   0.79435   0.99780   1.000
    N57     N    0.64511   0.69324   0.00318   1.000
    O58     O    0.67978   0.71082   0.00236   1.000
    O59     O    0.61729   0.70352   0.00250   1.000
    N60     N    0.10452   0.30458   0.50258   1.000
    O61     O    0.06986   0.28701   0.50190   1.000
    O62     O    0.13236   0.29434   0.50212   1.000
    N63     N    0.14511   0.69323   0.00310   1.000
    O64     O    0.17978   0.71081   0.00230   1.000
    O65     O    0.11728   0.70351   0.00244   1.000
    N66     N    0.60452   0.30459   0.50257   1.000
    O67     O    0.63236   0.29435   0.50212   1.000
    O68     O    0.56987   0.28702   0.50189   1.000
    N69     N    0.85461   0.19331   0.49820   1.000
    O70     O    0.88243   0.20356   0.49861   1.000
    O71     O    0.81993   0.21089   0.49884   1.000
loop_
    _geom_bond_atom_site_label_1
    _geom_bond_atom_site_label_2
    _geom_bond_distance
    _geom_bond_site_symmetry_2
    _ccdc_geom_bond_type
    N8     O9        2.32510      .   S
    Zr1    O9        3.31911  1_655   S
    N8     O10       2.32039      .   S
    Zr6    O10       3.31142      .   S
    N8     O11       2.32810  1_545   S
    Zr2    O11       3.31784  1_556   S
    N8     O12       2.31823  1_545   S
    Zr4    O12       3.30899      .   S
    N13    O14       2.32650      .   S
    Zr5    O14       3.32043      .   S
    N13    O15       2.31802      .   S
    Zr2    O15       3.30824  1_556   S
    N13    O16       2.31793      .   S
    Zr0    O16       3.30845      .   S
    N13    O17       2.32793      .   S
    Zr6    O17       3.32340      .   S
    N18    O19       2.31720      .   S
    Zr3    O19       3.30768      .   S
    N18    O20       2.32548      .   S
    Zr7    O20       3.31901      .   S
    N18    O21       2.32667      .   S
    Zr4    O21       3.32184  1_454   S
    N18    O22       2.31828      .   S
    Zr1    O22       3.30905      .   S
    N23    O24       2.31848  1_545   S
    Zr5    O24       3.30925      .   S
    N23    O25       2.32013      .   S
    Zr7    O25       3.31121      .   S
    N23    O26       2.32482      .   S
    Zr0    O26       3.31874      .   S
    N23    O27       2.32610  1_545   S
    Zr3    O27       3.32034  1_556   S
    N28    O29       2.32546      .   S
    Zr2    O29       3.31888      .   S
    N28    O30       2.32701  1_565   S
    Zr1    O30       3.32152  1_655   S
    N28    O31       2.31722  1_565   S
    Zr6    O31       3.30824      .   S
    N28    O32       2.31791      .   S
    Zr4    O32       3.30864  1_554   S
    N33    O34       2.31807      .   S
    Zr3    O34       3.30835  1_556   S
    N33    O35       2.31791      .   S
    Zr1    O35       3.30839      .   S
    N33    O36       2.32786      .   S
    Zr7    O36       3.32333      .   S
    N33    O37       2.32652      .   S
    Zr4    O37       3.32046  1_455   S
    N38    O39       2.32492  1_565   S
    Zr0    O39       3.31963      .   S
    N38    O40       2.33185  1_565   S
    Zr7    O40       3.28960      .   S
    N38    O41       2.32760      .   S
    Zr3    O41       3.32100      .   S
    N38    O42       2.32014      .   S
    Zr5    O42       3.31059  1_554   S
    N43    O44       2.31741      .   S
    Zr2    O44       3.30794      .   S
    N43    O45       2.32524      .   S
    Zr6    O45       3.31874      .   S
    N43    O46       2.32685      .   S
    Zr5    O46       3.32203  1_554   S
    N43    O47       2.31829      .   S
    Zr0    O47       3.30870      .   S
    N48    O49       0.40806      .   S
    Zr0    O49       1.22419      .   S
    N48    O50       0.53653      .   S
    Zr6    O50       1.60958      .   S
    N51    O52       0.53667      .   S
    Zr4    O52       1.61002  1_454   S
    N51    O53       0.40808      .   S
    Zr3    O53       1.22423      .   S
    N54    O55       0.53672      .   S
    Zr5    O55       1.61015  1_554   S
    N54    O56       0.40808      .   S
    Zr2    O56       1.22425      .   S
    N57    O58       0.53689      .   S
    Zr3    O58       1.61067  1_556   S
    N57    O59       0.40807      .   S
    Zr5    O59       1.22420      .   S
    N60    O61       0.53657      .   S
    Zr1    O61       1.60972  1_655   S
    N60    O62       0.40805      .   S
    Zr6    O62       1.22414      .   S
    N63    O64       0.53692      .   S
    Zr2    O64       1.61076  1_556   S
    N63    O65       0.40806      .   S
    Zr4    O65       1.22417      .   S
    N66    O67       0.40805      .   S
    Zr7    O67       1.22415      .   S
    N66    O68       0.53659      .   S
    Zr0    O68       1.60978      .   S
    N69    O70       0.40807      .   S
    Zr1    O70       1.22420      .   S
    N69    O71       0.53655      .   S
    Zr7    O71       1.60966      .   S
