# CIF file generated by openbabel 2.4.90, see http://openbabel.sf.net
data_I
_chemical_name_common ''
_cell_length_a 23.679
_cell_length_b 14.304
_cell_length_c 17.532
_cell_angle_alpha 89.972
_cell_angle_beta 90.004
_cell_angle_gamma 90.006
_space_group_name_H-M_alt 'P 1'
_space_group_name_Hall 'P 1'
loop_
    _symmetry_equiv_pos_as_xyz
    x,y,z
loop_
    _atom_site_label
    _atom_site_type_symbol
    _atom_site_fract_x
    _atom_site_fract_y
    _atom_site_fract_z
    _atom_site_occupancy
    C0      C    0.00706   0.43089   0.13847   1.000
    C1      C    0.50696   0.43097   0.13846   1.000
    C2      C    0.49772   0.30379   0.40271   1.000
    C3      C    0.99768   0.30355   0.40263   1.000
    C4      C    0.00705   0.56911   0.86150   1.000
    C5      C    0.50701   0.56901   0.86156   1.000
    C6      C    0.49765   0.69659   0.59760   1.000
    C7      C    0.99768   0.69647   0.59733   1.000
    C8      C    0.49190   0.07060   0.63841   1.000
    C9      C    0.99277   0.07057   0.63840   1.000
    C10     C    0.00227   0.19574   0.90326   1.000
    C11     C    0.50224   0.19571   0.90321   1.000
    C12     C    0.49278   0.92943   0.36158   1.000
    C13     C    0.99277   0.92943   0.36154   1.000
    C14     C    0.00227   0.80426   0.09673   1.000
    C15     C    0.50228   0.80429   0.09677   1.000
