# CIF file generated by openbabel 2.4.90, see http://openbabel.sf.net
data_I
_chemical_name_common ''
_cell_length_a 23.679
_cell_length_b 14.304
_cell_length_c 17.532
_cell_angle_alpha 89.972
_cell_angle_beta 90.004
_cell_angle_gamma 90.006
_space_group_name_H-M_alt 'P 1'
_space_group_name_Hall 'P 1'
loop_
    _symmetry_equiv_pos_as_xyz
    x,y,z
loop_
    _atom_site_label
    _atom_site_type_symbol
    _atom_site_fract_x
    _atom_site_fract_y
    _atom_site_fract_z
    _atom_site_occupancy
    Zr0     Zr   0.00854   0.63826   0.01526   1.000
    Zr1     Zr   0.50858   0.63821   0.01531   1.000
    Zr2     Zr   0.00854   0.36175   0.98471   1.000
    Zr3     Zr   0.50859   0.36176   0.98468   1.000
    Zr4     Zr   0.49102   0.86219   0.51571   1.000
    Zr5     Zr   0.99108   0.86228   0.51561   1.000
    Zr6     Zr   0.49096   0.13787   0.48434   1.000
    Zr7     Zr   0.99103   0.13776   0.48437   1.000
    Zr8     Zr   0.00706   0.43089   0.13847   1.000
    Zr9     Zr   0.50696   0.43097   0.13846   1.000
    Zr10    Zr   0.49772   0.30379   0.40271   1.000
    Zr11    Zr   0.99768   0.30355   0.40263   1.000
    Zr12    Zr   0.00705   0.56911   0.86150   1.000
    Zr13    Zr   0.50701   0.56901   0.86156   1.000
    Zr14    Zr   0.49765   0.69659   0.59760   1.000
    Zr15    Zr   0.99768   0.69647   0.59733   1.000
    Zr16    Zr   0.49190   0.07060   0.63841   1.000
    Zr17    Zr   0.99277   0.07057   0.63840   1.000
    Zr18    Zr   0.00227   0.19574   0.90326   1.000
    Zr19    Zr   0.50224   0.19571   0.90321   1.000
    Zr20    Zr   0.49278   0.92943   0.36158   1.000
    Zr21    Zr   0.99277   0.92943   0.36154   1.000
    Zr22    Zr   0.00227   0.80426   0.09673   1.000
    Zr23    Zr   0.50228   0.80429   0.09677   1.000
    Zr24    Zr   0.00978   0.49772   0.09036   1.000
    Zr25    Zr   0.51089   0.49767   0.09037   1.000
    Zr26    Zr   0.00504   0.34543   0.11649   1.000
    Zr27    Zr   0.50387   0.34560   0.11640   1.000
    Zr28    Zr   0.50607   0.31285   0.47392   1.000
    Zr29    Zr   0.00000   0.31287   0.47404   1.000
    Zr30    Zr   0.48452   0.22486   0.37249   1.000
    Zr31    Zr   0.98543   0.22431   0.37220   1.000
    Zr32    Zr   0.00977   0.50228   0.90961   1.000
    Zr33    Zr   0.51090   0.50230   0.90965   1.000
    Zr34    Zr   0.00503   0.65457   0.88349   1.000
    Zr35    Zr   0.50389   0.65438   0.88354   1.000
    Zr36    Zr   0.50384   0.68715   0.52600   1.000
    Zr37    Zr   0.00000   0.68714   0.52590   1.000
    Zr38    Zr   0.48648   0.77607   0.62837   1.000
    Zr39    Zr   0.98544   0.77571   0.62776   1.000
    Zr40    Zr   0.48909   0.00400   0.59004   1.000
    Zr41    Zr   0.99012   0.00398   0.59004   1.000
    Zr42    Zr   0.49384   0.15610   0.61650   1.000
    Zr43    Zr   0.99481   0.15606   0.61658   1.000
    Zr44    Zr   0.99712   0.18526   0.97489   1.000
    Zr45    Zr   0.49608   0.18544   0.97472   1.000
    Zr46    Zr   0.01242   0.27583   0.87281   1.000
    Zr47    Zr   0.51344   0.27552   0.87292   1.000
    Zr48    Zr   0.49133   0.99609   0.40999   1.000
    Zr49    Zr   0.99013   0.99602   0.40994   1.000
    Zr50    Zr   0.49374   0.84387   0.38342   1.000
    Zr51    Zr   0.99482   0.84394   0.38341   1.000
    Zr52    Zr   0.99712   0.81474   0.02500   1.000
    Zr53    Zr   0.49609   0.81457   0.02527   1.000
    Zr54    Zr   0.01243   0.72418   0.12718   1.000
    Zr55    Zr   0.51346   0.72446   0.12705   1.000
    O56     O    0.00283   0.72650   0.02013   1.000
    O57     O    0.00916   0.56799   0.05281   1.000
    O58     O    0.01048   0.68122   0.07122   1.000
    O59     O    0.00679   0.64642   0.94937   1.000
    O60     O    0.50234   0.72639   0.02029   1.000
    O61     O    0.50973   0.56795   0.05284   1.000
    O62     O    0.51102   0.68134   0.07118   1.000
    O63     O    0.50623   0.64630   0.94942   1.000
    O64     O    0.99970   0.80950   0.06087   1.000
    O65     O    0.49918   0.80943   0.06102   1.000
    O66     O    0.00842   0.46431   0.11442   1.000
    O67     O    0.50892   0.46433   0.11442   1.000
    O68     O    0.00735   0.76422   0.11195   1.000
    O69     O    0.50787   0.76437   0.11191   1.000
    O70     O    0.50542   0.38829   0.12743   1.000
    O71     O    0.50623   0.35368   0.05054   1.000
    O72     O    0.00605   0.38816   0.12748   1.000
    O73     O    0.00679   0.35359   0.05060   1.000
    O74     O    0.99379   0.88669   0.37248   1.000
    O75     O    0.99145   0.96273   0.38574   1.000
    O76     O    0.49326   0.88665   0.37250   1.000
    O77     O    0.49205   0.96276   0.38578   1.000
    O78     O    0.99156   0.26393   0.38742   1.000
    O79     O    0.98823   0.18103   0.42829   1.000
    O80     O    0.49112   0.26432   0.38760   1.000
    O81     O    0.48774   0.18136   0.42842   1.000
    O82     O    0.99295   0.85311   0.44951   1.000
    O83     O    0.49238   0.85303   0.44956   1.000
    O84     O    0.99884   0.30821   0.43834   1.000
    O85     O    0.50190   0.30832   0.43832   1.000
    O86     O    0.99058   0.06689   0.44716   1.000
    O87     O    0.49114   0.06698   0.44717   1.000
    O88     O    0.49852   0.22536   0.47913   1.000
    O89     O    0.99551   0.22531   0.47921   1.000
    O90     O    0.49240   0.14699   0.55042   1.000
    O91     O    0.99292   0.14691   0.55048   1.000
    O92     O    0.99554   0.77471   0.52076   1.000
    O93     O    0.99060   0.93313   0.55283   1.000
    O94     O    0.98826   0.81899   0.57168   1.000
    O95     O    0.49743   0.77467   0.52086   1.000
    O96     O    0.49005   0.93310   0.55288   1.000
    O97     O    0.48875   0.81913   0.57204   1.000
    O98     O    0.99884   0.69180   0.56162   1.000
    O99     O    0.50074   0.69187   0.56180   1.000
    O100    O    0.49050   0.03730   0.61423   1.000
    O101    O    0.99145   0.03728   0.61422   1.000
    O102    O    0.99156   0.73609   0.61255   1.000
    O103    O    0.49206   0.73633   0.61299   1.000
    O104    O    0.49287   0.11335   0.62746   1.000
    O105    O    0.99379   0.11332   0.62749   1.000
    O106    O    0.00604   0.61184   0.87250   1.000
    O107    O    0.00841   0.53570   0.88556   1.000
    O108    O    0.50545   0.61169   0.87255   1.000
    O109    O    0.50895   0.53565   0.88561   1.000
    O110    O    0.00735   0.23579   0.88804   1.000
    O111    O    0.01048   0.31879   0.92876   1.000
    O112    O    0.50784   0.23562   0.88807   1.000
    O113    O    0.51101   0.31864   0.92880   1.000
    O114    O    0.49916   0.19057   0.93897   1.000
    O115    O    0.99969   0.19050   0.93908   1.000
    O116    O    0.00915   0.43202   0.94716   1.000
    O117    O    0.50974   0.43203   0.94717   1.000
    O118    O    0.50234   0.27360   0.97970   1.000
    O119    O    0.00283   0.27351   0.97980   1.000
    N120    N    0.74102   0.86936   0.51906   1.000
    O121    O    0.84095   0.86791   0.51742   1.000
    O122    O    0.64110   0.86777   0.51825   1.000
    N123    N    0.24094   0.13057   0.48070   1.000
    O124    O    0.14106   0.13214   0.48160   1.000
    O125    O    0.34086   0.13206   0.48237   1.000
    N126    N    0.24105   0.86936   0.51925   1.000
    O127    O    0.34096   0.86784   0.51759   1.000
    O128    O    0.14115   0.86784   0.51837   1.000
    N129    N    0.51205   0.51284   0.31892   1.000
    O130    O    0.50958   0.47649   0.24970   1.000
    O131    O    0.50642   0.42895   0.34780   1.000
    N132    N    0.01163   0.48733   0.68103   1.000
    O133    O    0.00524   0.57125   0.65217   1.000
    O134    O    0.00944   0.52366   0.75025   1.000
    N135    N    0.25850   0.63075   0.01910   1.000
    O136    O    0.35843   0.63240   0.01816   1.000
    O137    O    0.15859   0.63235   0.01737   1.000
    N138    N    0.48762   0.98732   0.81854   1.000
    O139    O    0.49333   0.07099   0.84777   1.000
    O140    O    0.48973   0.02423   0.74947   1.000
    N141    N    0.25851   0.36926   0.98087   1.000
    O142    O    0.35844   0.36759   0.98181   1.000
    O143    O    0.15860   0.36766   0.98259   1.000
    N144    N    0.74100   0.13064   0.48097   1.000
    O145    O    0.84093   0.13211   0.48258   1.000
    O146    O    0.64107   0.13220   0.48179   1.000
    N147    N    0.75853   0.36899   0.98136   1.000
    O148    O    0.65863   0.36744   0.98296   1.000
    O149    O    0.85844   0.36735   0.98219   1.000
    N150    N    0.01164   0.51268   0.31892   1.000
    O151    O    0.00944   0.47635   0.24970   1.000
    O152    O    0.00524   0.42876   0.34777   1.000
    N153    N    0.75852   0.63101   0.01863   1.000
    O154    O    0.65862   0.63255   0.01703   1.000
    O155    O    0.85843   0.63264   0.01780   1.000
    N156    N    0.98802   0.98730   0.81857   1.000
    O157    O    0.99358   0.07098   0.84781   1.000
    O158    O    0.99030   0.02420   0.74948   1.000
    N159    N    0.51211   0.48726   0.68106   1.000
    O160    O    0.50965   0.52356   0.75030   1.000
    O161    O    0.50644   0.57123   0.65229   1.000
    N162    N    0.98802   0.01270   0.18141   1.000
    O163    O    0.99358   0.92902   0.15217   1.000
    O164    O    0.99029   0.97580   0.25048   1.000
    N165    N    0.48785   0.01269   0.18146   1.000
    O166    O    0.49349   0.92902   0.15222   1.000
    O167    O    0.49021   0.97579   0.25053   1.000
loop_
    _geom_bond_atom_site_label_1
    _geom_bond_atom_site_label_2
    _geom_bond_distance
    _geom_bond_site_symmetry_2
    _ccdc_geom_bond_type
    Zr0    O56       1.27233      .   S
    Zr52   O56       1.27233  1_655   S
    Zr0    O57       1.20135      .   S
    Zr24   O57       1.20135      .   S
    Zr0    O58       1.15880      .   S
    Zr54   O58       1.15880      .   S
    Zr0    O59       1.16165  1_554   S
    Zr34   O59       1.16165      .   S
    Zr1    O60       1.27298      .   S
    Zr53   O60       1.27298      .   S
    Zr1    O61       1.20140      .   S
    Zr25   O61       1.20140      .   S
    Zr1    O62       1.15925      .   S
    Zr55   O62       1.15925      .   S
    Zr1    O63       1.16213  1_554   S
    Zr35   O63       1.16213      .   S
    Zr52   O64       0.63612      .   S
    Zr22   O64       0.63612  1_455   S
    Zr53   O65       0.63526      .   S
    Zr23   O65       0.63526      .   S
    Zr24   O66       0.63809      .   S
    Zr8    O66       0.63809      .   S
    Zr25   O67       0.63816      .   S
    Zr9    O67       0.63816      .   S
    Zr22   O68       0.64315      .   S
    Zr54   O68       0.64315      .   S
    Zr23   O69       0.64325      .   S
    Zr55   O69       0.64325      .   S
    Zr27   O70       0.64161      .   S
    Zr9    O70       0.64161      .   S
    Zr27   O71       1.16172      .   S
    Zr3    O71       1.16172  1_556   S
    Zr26   O72       0.64137      .   S
    Zr8    O72       0.64137      .   S
    Zr26   O73       1.16174      .   S
    Zr2    O73       1.16174  1_556   S
    Zr21   O74       0.64114      .   S
    Zr51   O74       0.64114      .   S
    Zr21   O75       0.63876      .   S
    Zr49   O75       0.63876      .   S
    Zr20   O76       0.64113      .   S
    Zr50   O76       0.64113      .   S
    Zr20   O77       0.63868      .   S
    Zr48   O77       0.63868      .   S
    Zr31   O78       0.64301      .   S
    Zr11   O78       0.64301      .   S
    Zr31   O79       1.16353      .   S
    Zr7    O79       1.16353      .   S
    Zr30   O80       0.64299      .   S
    Zr10   O80       0.64299      .   S
    Zr30   O81       1.16344      .   S
    Zr6    O81       1.16344      .   S
    Zr51   O82       1.16717      .   S
    Zr5    O82       1.16717      .   S
    Zr50   O83       1.16754      .   S
    Zr4    O83       1.16754      .   S
    Zr11   O84       0.63015      .   S
    Zr29   O84       0.63015  1_455   S
    Zr10   O85       0.63534      .   S
    Zr28   O85       0.63534      .   S
    Zr49   O86       1.20582  1_565   S
    Zr7    O86       1.20582      .   S
    Zr48   O87       1.20569  1_565   S
    Zr6    O87       1.20569      .   S
    Zr28   O88       1.26742      .   S
    Zr6    O88       1.26742      .   S
    Zr29   O89       1.26012  1_455   S
    Zr7    O89       1.26012      .   S
    Zr6    O90       1.16639      .   S
    Zr42   O90       1.16639      .   S
    Zr7    O91       1.16724      .   S
    Zr43   O91       1.16724      .   S
    Zr5    O92       1.26023      .   S
    Zr37   O92       1.26023  1_455   S
    Zr5    O93       1.20565      .   S
    Zr41   O93       1.20565  1_545   S
    Zr5    O94       1.16348      .   S
    Zr39   O94       1.16348      .   S
    Zr4    O95       1.26425      .   S
    Zr36   O95       1.26425      .   S
    Zr4    O96       1.20600      .   S
    Zr40   O96       1.20600  1_545   S
    Zr4    O97       1.16489      .   S
    Zr38   O97       1.16489      .   S
    Zr37   O98       0.63033  1_455   S
    Zr15   O98       0.63033      .   S
    Zr36   O99       0.63555      .   S
    Zr14   O99       0.63555      .   S
    Zr40   O100      0.63869      .   S
    Zr16   O100      0.63869      .   S
    Zr41   O101      0.63852      .   S
    Zr17   O101      0.63852      .   S
    Zr15   O102      0.64305      .   S
    Zr39   O102      0.64305      .   S
    Zr14   O103      0.64304      .   S
    Zr38   O103      0.64304      .   S
    Zr42   O104      0.64132      .   S
    Zr16   O104      0.64132      .   S
    Zr43   O105      0.64102      .   S
    Zr17   O105      0.64102      .   S
    Zr12   O106      0.64140      .   S
    Zr34   O106      0.64140      .   S
    Zr12   O107      0.63810      .   S
    Zr32   O107      0.63810      .   S
    Zr13   O108      0.64140      .   S
    Zr35   O108      0.64140      .   S
    Zr13   O109      0.63817      .   S
    Zr33   O109      0.63817      .   S
    Zr46   O110      0.64313      .   S
    Zr18   O110      0.64313      .   S
    Zr46   O111      1.15867      .   S
    Zr2    O111      1.15867      .   S
    Zr47   O112      0.64325      .   S
    Zr19   O112      0.64325      .   S
    Zr47   O113      1.15935      .   S
    Zr3    O113      1.15935      .   S
    Zr19   O114      0.63531      .   S
    Zr45   O114      0.63531      .   S
    Zr18   O115      0.63527  1_455   S
    Zr44   O115      0.63527      .   S
    Zr32   O116      1.20132      .   S
    Zr2    O116      1.20132      .   S
    Zr33   O117      1.20124      .   S
    Zr3    O117      1.20124      .   S
    Zr45   O118      1.27274      .   S
    Zr3    O118      1.27274      .   S
    Zr44   O119      1.27239  1_655   S
    Zr2    O119      1.27239      .   S
    N120   O121      2.36665      .   S
    Zr5    O121      3.55589      .   S
    N120   O122      2.36600      .   S
    Zr4    O122      3.55505      .   S
    N123   O124      2.36529      .   S
    Zr7    O124      3.55391  1_655   S
    N123   O125      2.36619      .   S
    Zr6    O125      3.55532      .   S
    N126   O127      2.36595      .   S
    Zr4    O127      3.55429      .   S
    N126   O128      2.36573      .   S
    Zr5    O128      3.55480  1_655   S
    N129   O130      1.32177      .   S
    Zr9    O130      2.05725      .   S
    N129   O131      1.30891      .   S
    Zr10   O131      2.04273      .   S
    N132   O133      1.31118      .   S
    Zr15   O133      2.04031  1_655   S
    N132   O134      1.32149      .   S
    Zr12   O134      2.05696      .   S
    N135   O136      2.36651      .   S
    Zr1    O136      3.55666      .   S
    N135   O137      2.36596      .   S
    Zr0    O137      3.55428      .   S
    N138   O139      1.30906  1_565   S
    Zr19   O139      2.04294      .   S
    N138   O140      1.32186  1_565   S
    Zr16   O140      2.05722      .   S
    N141   O142      2.36651      .   S
    Zr3    O142      3.55674      .   S
    N141   O143      2.36605      .   S
    Zr2    O143      3.55438      .   S
    N144   O145      2.36643      .   S
    Zr7    O145      3.55528      .   S
    N144   O146      2.36624      .   S
    Zr6    O146      3.55583      .   S
    N147   O148      2.36571      .   S
    Zr3    O148      3.55383      .   S
    N147   O149      2.36594      .   S
    Zr2    O149      3.55553  1_455   S
    N150   O151      1.32132      .   S
    Zr8    O151      2.05679      .   S
    N150   O152      1.31113      .   S
    Zr11   O152      2.04049  1_655   S
    N153   O154      2.36571      .   S
    Zr1    O154      3.55392      .   S
    N153   O155      2.36601      .   S
    Zr0    O155      3.55561  1_455   S
    N156   O157      1.30903  1_565   S
    Zr18   O157      2.04297  1_455   S
    N156   O158      1.32209  1_565   S
    Zr17   O158      2.05788      .   S
    N159   O160      1.32185      .   S
    Zr13   O160      2.05727      .   S
    N159   O161      1.30947      .   S
    Zr14   O161      2.04359      .   S
    N162   O163      1.30899  1_545   S
    Zr22   O163      2.04292  1_455   S
    N162   O164      1.32195  1_545   S
    Zr21   O164      2.05740      .   S
    N165   O166      1.30904  1_545   S
    Zr23   O166      2.04293      .   S
    N165   O167      1.32198  1_545   S
    Zr20   O167      2.05736      .   S
