# CIF file generated by openbabel 2.4.90, see http://openbabel.sf.net
data_I
_chemical_name_common ''
_cell_length_a 13
_cell_length_b 18.343
_cell_length_c 18.751
_cell_angle_alpha 90.178
_cell_angle_beta 96.467
_cell_angle_gamma 90.123
_space_group_name_H-M_alt 'P 1'
_space_group_name_Hall 'P 1'
loop_
    _symmetry_equiv_pos_as_xyz
    x,y,z
loop_
    _atom_site_label
    _atom_site_type_symbol
    _atom_site_fract_x
    _atom_site_fract_y
    _atom_site_fract_z
    _atom_site_occupancy
    N0      N    0.14589   0.75107   0.19335   1.000
    N1      N    0.49956   0.00035   0.99963   1.000
    N2      N    0.99802   0.99949   0.00036   1.000
    N3      N    0.35286   0.24850   0.80598   1.000
    N4      N    0.85372   0.24872   0.80629   1.000
    N5      N    0.64615   0.75127   0.19434   1.000
    N6      N    0.24982   0.50008   0.50067   1.000
    N7      N    0.10366   0.25149   0.30669   1.000
    N8      N    0.60445   0.25197   0.30686   1.000
    N9      N    0.74928   0.49994   0.50063   1.000
    N10     N    0.99860   0.99989   0.49979   1.000
    N11     N    0.50025   0.99963   0.49976   1.000
    N12     N    0.74926   0.50033   0.99995   1.000
    N13     N    0.25023   0.49977   0.00137   1.000
    N14     N    0.89496   0.74812   0.69376   1.000
    N15     N    0.39456   0.74847   0.69316   1.000
    Zr16    Zr   0.37335   0.98737   0.78093   1.000
    O17     O    0.37660   0.06457   0.78906   1.000
    O18     O    0.26714   0.99138   0.84556   1.000
    O19     O    0.38917   0.91713   0.75666   1.000
    O20     O    0.26549   0.98924   0.69971   1.000
    Zr21    Zr   0.12458   0.51241   0.28080   1.000
    O22     O    0.12772   0.43529   0.28901   1.000
    O23     O    0.14043   0.58262   0.25663   1.000
    O24     O    0.01664   0.51061   0.19964   1.000
    O25     O    0.01840   0.50828   0.34553   1.000
    Zr26    Zr   0.12437   0.01231   0.21910   1.000
    O27     O    0.23255   0.01034   0.30019   1.000
    O28     O    0.10870   0.08264   0.24332   1.000
    O29     O    0.23052   0.00833   0.15445   1.000
    O30     O    0.12139   0.93507   0.21092   1.000
    Zr31    Zr   0.87555   0.98767   0.78070   1.000
    O32     O    0.89091   0.91724   0.75670   1.000
    O33     O    0.87848   0.06486   0.78886   1.000
    O34     O    0.76913   0.99189   0.84517   1.000
    O35     O    0.76757   0.98942   0.69951   1.000
    Zr36    Zr   0.62614   0.51256   0.28138   1.000
    O37     O    0.62916   0.43558   0.28966   1.000
    O38     O    0.51959   0.50846   0.34596   1.000
    O39     O    0.51799   0.51051   0.20048   1.000
    O40     O    0.64133   0.58290   0.25728   1.000
    Zr41    Zr   0.62232   0.01240   0.21932   1.000
    O42     O    0.60737   0.08286   0.24347   1.000
    O43     O    0.61986   0.93520   0.21138   1.000
    O44     O    0.72862   0.00813   0.15481   1.000
    O45     O    0.73066   0.01053   0.30033   1.000
    Zr46    Zr   0.87546   0.48755   0.72142   1.000
    O47     O    0.98142   0.49168   0.65641   1.000
    O48     O    0.85948   0.41726   0.74472   1.000
    O49     O    0.87189   0.56453   0.71261   1.000
    O50     O    0.98320   0.48938   0.80230   1.000
    Zr51    Zr   0.37325   0.48761   0.71927   1.000
    O52     O    0.47972   0.49168   0.65489   1.000
    O53     O    0.35764   0.41728   0.74325   1.000
    O54     O    0.37020   0.56470   0.71095   1.000
    O55     O    0.48140   0.48964   0.80039   1.000
loop_
    _geom_bond_atom_site_label_1
    _geom_bond_atom_site_label_2
    _geom_bond_distance
    _geom_bond_site_symmetry_2
    _ccdc_geom_bond_type
    Zr16   O17       1.42370  1_565   S
    N3     O17       3.40567      .   S
    Zr16   O18       1.93831      .   S
    N2     O18       4.79317  1_654   S
    Zr16   O19       1.38866      .   S
    N15    O19       3.31515      .   S
    Zr16   O20       1.95089      .   S
    N10    O20       4.81734  1_655   S
    Zr21   O22       1.42362      .   S
    N7     O22       3.40597      .   S
    Zr21   O23       1.38922      .   S
    N0     O23       3.31673      .   S
    Zr21   O24       1.95055      .   S
    N12    O24       4.81652  1_656   S
    Zr21   O25       1.93964      .   S
    N9     O25       4.79715  1_655   S
    Zr26   O27       1.95195      .   S
    N11    O27       4.81943  1_565   S
    Zr26   O28       1.38938      .   S
    N7     O28       3.31732      .   S
    Zr26   O29       1.93793      .   S
    N1     O29       4.79253  1_556   S
    Zr26   O30       1.42469  1_545   S
    N0     O30       3.40909      .   S
    Zr31   O32       1.38900      .   S
    N14    O32       3.31812      .   S
    Zr31   O33       1.42356  1_565   S
    N4     O33       3.40678      .   S
    Zr31   O34       1.93863      .   S
    N1     O34       4.79366  1_545   S
    Zr31   O35       1.95142      .   S
    N11    O35       4.81833      .   S
    Zr36   O37       1.42112      .   S
    N8     O37       3.40235      .   S
    Zr36   O38       1.94127      .   S
    N6     O38       4.79906      .   S
    Zr36   O39       1.94886      .   S
    N13    O39       4.81240      .   S
    Zr36   O40       1.38954      .   S
    N5     O40       3.31259      .   S
    Zr41   O42       1.38932      .   S
    N8     O42       3.32035      .   S
    Zr41   O43       1.42339  1_545   S
    N5     O43       3.40953      .   S
    Zr41   O44       1.93781      .   S
    N2     O44       4.79199  1_565   S
    Zr41   O45       1.95218      .   S
    N10    O45       4.81989  1_565   S
    Zr46   O47       1.94098      .   S
    N6     O47       4.79815  1_455   S
    Zr46   O48       1.38532      .   S
    N4     O48       3.30709      .   S
    Zr46   O49       1.42239      .   S
    N14    O49       3.40346      .   S
    Zr46   O50       1.94515      .   S
    N13    O50       4.80579  1_454   S
    Zr51   O52       1.93777      .   S
    N9     O52       4.79105      .   S
    Zr51   O53       1.38942      .   S
    N3     O53       3.31825      .   S
    Zr51   O54       1.42331      .   S
    N15    O54       3.40593      .   S
    Zr51   O55       1.95183      .   S
    N12    O55       4.81903      .   S
