# CIF file generated by openbabel 2.4.90, see http://openbabel.sf.net
data_I
_chemical_name_common ''
_cell_length_a 13
_cell_length_b 18.343
_cell_length_c 18.751
_cell_angle_alpha 90.178
_cell_angle_beta 96.467
_cell_angle_gamma 90.123
_space_group_name_H-M_alt 'P 1'
_space_group_name_Hall 'P 1'
loop_
    _symmetry_equiv_pos_as_xyz
    x,y,z
loop_
    _atom_site_label
    _atom_site_type_symbol
    _atom_site_fract_x
    _atom_site_fract_y
    _atom_site_fract_z
    _atom_site_occupancy
    Zr0     Zr   0.12458   0.51241   0.28080   1.000
    Zr1     Zr   0.62614   0.51256   0.28138   1.000
    Zr2     Zr   0.12437   0.01231   0.21910   1.000
    Zr3     Zr   0.62232   0.01240   0.21932   1.000
    Zr4     Zr   0.37325   0.48761   0.71927   1.000
    Zr5     Zr   0.87546   0.48755   0.72142   1.000
    Zr6     Zr   0.37335   0.98737   0.78093   1.000
    Zr7     Zr   0.87555   0.98767   0.78070   1.000
    N8      N    0.14589   0.75107   0.19335   1.000
    O9      O    0.15628   0.65283   0.23245   1.000
    O10     O    0.11842   0.85782   0.20273   1.000
    N11     N    0.49956   0.00035   0.99963   1.000
    O12     O    0.33666   0.00436   0.08981   1.000
    O13     O    0.66270   0.99611   0.90965   1.000
    N14     N    0.99802   0.99949   0.00036   1.000
    O15     O    0.83491   0.00385   0.09030   1.000
    O16     O    0.16093   0.99539   0.91019   1.000
    N17     N    0.35286   0.24850   0.80598   1.000
    O18     O    0.34204   0.34695   0.76722   1.000
    O19     O    0.37986   0.14176   0.79720   1.000
    N20     N    0.85372   0.24872   0.80629   1.000
    O21     O    0.84350   0.34697   0.76802   1.000
    O22     O    0.88141   0.14204   0.79701   1.000
    N23     N    0.64615   0.75127   0.19434   1.000
    O24     O    0.65653   0.65325   0.23318   1.000
    O25     O    0.61740   0.85800   0.20343   1.000
    N26     N    0.24982   0.50008   0.50067   1.000
    O27     O    0.41304   0.50435   0.41054   1.000
    O28     O    0.08738   0.49582   0.59140   1.000
    N29     N    0.10366   0.25149   0.30669   1.000
    O30     O    0.09303   0.15297   0.26755   1.000
    O31     O    0.13086   0.35817   0.29721   1.000
    N32     N    0.60445   0.25197   0.30686   1.000
    O33     O    0.59241   0.15331   0.26763   1.000
    O34     O    0.63219   0.35860   0.29793   1.000
    N35     N    0.74928   0.49994   0.50063   1.000
    O36     O    0.91221   0.50414   0.41027   1.000
    O37     O    0.58619   0.49576   0.59051   1.000
    N38     N    0.99860   0.99989   0.49979   1.000
    O39     O    0.83901   0.00866   0.38134   1.000
    O40     O    0.15763   0.99110   0.61850   1.000
    N41     N    0.50025   0.99963   0.49976   1.000
    O42     O    0.34073   0.00837   0.38128   1.000
    O43     O    0.65960   0.99118   0.61833   1.000
    N44     N    0.74926   0.50033   0.99995   1.000
    O45     O    0.90870   0.50880   0.11848   1.000
    O46     O    0.58956   0.49166   0.88152   1.000
    N47     N    0.25023   0.49977   0.00137   1.000
    O48     O    0.40985   0.50846   0.11958   1.000
    O49     O    0.09093   0.49121   0.88317   1.000
    N50     N    0.89496   0.74812   0.69376   1.000
    O51     O    0.90626   0.84680   0.73270   1.000
    O52     O    0.86831   0.64150   0.70379   1.000
    N53     N    0.39456   0.74847   0.69316   1.000
    O54     O    0.40499   0.84688   0.73240   1.000
    O55     O    0.36714   0.64179   0.70262   1.000
loop_
    _geom_bond_atom_site_label_1
    _geom_bond_atom_site_label_2
    _geom_bond_distance
    _geom_bond_site_symmetry_2
    _ccdc_geom_bond_type
    N8     O9        1.94679      .   S
    Zr0    O9        2.77844      .   S
    N8     O10       2.00192      .   S
    Zr2    O10       2.84938  1_545   S
    N11    O12       2.85570  1_556   S
    Zr2    O12       3.87587      .   S
    N11    O13       2.85611  1_545   S
    Zr7    O13       3.87725      .   S
    N14    O15       2.85529  1_565   S
    Zr3    O15       3.87561      .   S
    N14    O16       2.85594  1_654   S
    Zr6    O16       3.87661      .   S
    N17    O18       1.94821      .   S
    Zr4    O18       2.77885      .   S
    N17    O19       1.99940      .   S
    Zr6    O19       2.84741  1_565   S
    N20    O21       1.94122      .   S
    Zr5    O21       2.77064      .   S
    N20    O22       2.00091      .   S
    Zr7    O22       2.84712  1_565   S
    N23    O24       1.94129      .   S
    Zr1    O24       2.77907      .   S
    N23    O25       2.00427      .   S
    Zr3    O25       2.84679  1_545   S
    N26    O27       2.85883      .   S
    Zr1    O27       3.88254      .   S
    N26    O28       2.85823      .   S
    Zr5    O28       3.88197  1_655   S
    N29    O30       1.94721      .   S
    Zr2    O30       2.77877      .   S
    N29    O31       1.99984      .   S
    Zr0    O31       2.84724      .   S
    N32    O33       1.95079      .   S
    Zr3    O33       2.77864      .   S
    N32    O34       1.99913      .   S
    Zr1    O34       2.84223      .   S
    N35    O36       2.85860      .   S
    Zr0    O36       3.87929  1_455   S
    N35    O37       2.85432      .   S
    Zr4    O37       3.87553      .   S
    N38    O39       2.86857  1_565   S
    Zr3    O39       3.90436      .   S
    N38    O40       2.86733  1_655   S
    Zr6    O40       3.90178      .   S
    N41    O42       2.86831  1_565   S
    Zr2    O42       3.90389      .   S
    N41    O43       2.86775      .   S
    Zr7    O43       3.90285      .   S
    N44    O45       2.86680  1_556   S
    Zr0    O45       3.90110  1_455   S
    N44    O46       2.86800      .   S
    Zr4    O46       3.90366      .   S
    N47    O48       2.86432      .   S
    Zr1    O48       3.89773      .   S
    N47    O49       2.86149  1_554   S
    Zr5    O49       3.89029  1_655   S
    N50    O51       1.94867      .   S
    Zr7    O51       2.77800      .   S
    N50    O52       1.99861      .   S
    Zr5    O52       2.84479      .   S
    N53    O54       1.94580      .   S
    Zr6    O54       2.77732      .   S
    N53    O55       2.00021      .   S
    Zr4    O55       2.84662      .   S
