# CIF file generated by openbabel 2.4.90, see http://openbabel.sf.net
data_I
_chemical_name_common ''
_cell_length_a 10.95
_cell_length_b 13.18
_cell_length_c 13.821
_cell_angle_alpha 61.782
_cell_angle_beta 71.832
_cell_angle_gamma 89.868
_space_group_name_H-M_alt 'P 1'
_space_group_name_Hall 'P 1'
loop_
    _symmetry_equiv_pos_as_xyz
    x,y,z
loop_
    _atom_site_label
    _atom_site_type_symbol
    _atom_site_fract_x
    _atom_site_fract_y
    _atom_site_fract_z
    _atom_site_occupancy
    N0      N    0.50024   0.50006   0.49984   1.000
    N1      N    0.00033   0.00024   0.49952   1.000
    N2      N    0.89400   0.01390   0.12657   1.000
    N3      N    0.60641   0.13957   0.87373   1.000
    N4      N    0.10600   0.98601   0.87330   1.000
    N5      N    0.39389   0.86043   0.12570   1.000
    Zr6     Zr   0.75007   0.91560   0.00080   1.000
    O7      O    0.80980   0.92805   0.85947   1.000
    O8      O    0.71410   0.99963   0.94866   1.000
    O9      O    0.86753   0.93767   0.95725   1.000
    O10     O    0.63255   0.89480   0.04373   1.000
    O11     O    0.78616   0.94765   0.05284   1.000
    O12     O    0.69054   0.78703   0.14130   1.000
    Zr13    Zr   0.25019   0.08440   0.99869   1.000
    O14     O    0.19060   0.07209   0.13988   1.000
    O15     O    0.36772   0.10519   0.95572   1.000
    O16     O    0.13266   0.06229   0.04239   1.000
    O17     O    0.28617   0.00037   0.05082   1.000
    O18     O    0.21399   0.05231   0.94678   1.000
    O19     O    0.30970   0.21298   0.85825   1.000
loop_
    _geom_bond_atom_site_label_1
    _geom_bond_atom_site_label_2
    _geom_bond_distance
    _geom_bond_site_symmetry_2
    _ccdc_geom_bond_type
    Zr6    O7        1.78067  1_554   S
    N1     O7        4.36669  1_445   S
    Zr6    O8        1.14949  1_554   S
    N3     O8        2.19326  1_545   S
    Zr6    O9        1.20607  1_554   S
    N4     O9        2.44738  1_455   S
    Zr6    O10       1.20618      .   S
    N5     O10       2.44790      .   S
    Zr6    O11       1.14765      .   S
    N2     O11       2.18906  1_545   S
    Zr6    O12       1.78079      .   S
    N0     O12       4.36762      .   S
    Zr13   O14       1.77968  1_556   S
    N1     O14       4.36397      .   S
    Zr13   O15       1.20632      .   S
    N3     O15       2.44812      .   S
    Zr13   O16       1.20689  1_556   S
    N2     O16       2.44943  1_655   S
    Zr13   O17       1.14951  1_556   S
    N5     O17       2.19328  1_565   S
    Zr13   O18       1.14705      .   S
    N4     O18       2.18766  1_565   S
    Zr13   O19       1.78036      .   S
    N0     O19       4.36744      .   S
