# CIF file generated by openbabel 2.4.90, see http://openbabel.sf.net
data_I
_chemical_name_common ''
_cell_length_a 13.423
_cell_length_b 13.464
_cell_length_c 16.481
_cell_angle_alpha 89.995
_cell_angle_beta 90.02
_cell_angle_gamma 89.893
_space_group_name_H-M_alt 'P 1'
_space_group_name_Hall 'P 1'
loop_
    _symmetry_equiv_pos_as_xyz
    x,y,z
loop_
    _atom_site_label
    _atom_site_type_symbol
    _atom_site_fract_x
    _atom_site_fract_y
    _atom_site_fract_z
    _atom_site_occupancy
    Zr0     Zr   0.00000   0.00000   0.00000   1.000
    Zr1     Zr   0.50001   0.00000   0.00000   1.000
    Zr2     Zr   0.25000   0.50000   0.50002   1.000
    Zr3     Zr   0.75004   0.50000   0.49990   1.000
    Zr4     Zr   0.25001   1.00000   0.99998   1.000
    Zr5     Zr   0.75001   0.00000   0.40000   1.000
    Zr6     Zr   0.00000   0.50000   0.49999   1.000
    Zr7     Zr   0.50002   0.50000   0.49999   1.000
    N8      N    0.37513   0.74974   0.75016   1.000
    O9      O    0.32275   0.85189   0.85426   1.000
    O10     O    0.42752   0.85187   0.85425   1.000
    O11     O    0.32264   0.64792   0.64595   1.000
    O12     O    0.42747   0.64790   0.64592   1.000
    N13     N    0.37491   0.75025   0.25016   1.000
    O14     O    0.32260   0.85209   0.14591   1.000
    O15     O    0.42725   0.64811   0.35428   1.000
    O16     O    0.42743   0.85206   0.14595   1.000
    O17     O    0.32248   0.64814   0.35426   1.000
    N18     N    0.12502   0.24975   0.74982   1.000
    O19     O    0.07269   0.35189   0.64571   1.000
    O20     O    0.17736   0.14790   0.85405   1.000
    O21     O    0.17745   0.35188   0.64574   1.000
    O22     O    0.07254   0.14793   0.85403   1.000
    N23     N    0.62513   0.24975   0.74981   1.000
    O24     O    0.57261   0.14793   0.85403   1.000
    O25     O    0.67756   0.35186   0.64568   1.000
    O26     O    0.57279   0.35189   0.64570   1.000
    N27     N    0.87502   0.75025   0.25016   1.000
    O28     O    0.92734   0.64810   0.35428   1.000
    O29     O    0.92749   0.85206   0.14595   1.000
    O30     O    0.82258   0.64812   0.35423   1.000
    N31     N    0.12500   0.25023   0.24982   1.000
    O32     O    0.07257   0.14812   0.14573   1.000
    O33     O    0.07264   0.35209   0.35405   1.000
    O34     O    0.17734   0.14811   0.14571   1.000
    O35     O    0.17747   0.35205   0.35405   1.000
    N36     N    0.12516   0.90487   0.99361   1.000
    O37     O    0.15636   0.93744   0.99680   1.000
    O38     O    0.09386   0.93744   0.99681   1.000
    N39     N    0.37487   0.09506   0.00665   1.000
    O40     O    0.40616   0.06253   0.00331   1.000
    O41     O    0.34366   0.06253   0.00330   1.000
    N42     N    0.87504   0.74976   0.75015   1.000
    O43     O    0.92739   0.64791   0.64592   1.000
    O44     O    0.82257   0.64795   0.64591   1.000
    O45     O    0.92746   0.85188   0.85425   1.000
    N46     N    0.62517   0.90494   0.99332   1.000
    O47     O    0.59387   0.93747   0.99666   1.000
    N48     N    0.62491   0.25025   0.24982   1.000
    O49     O    0.67740   0.35208   0.35401   1.000
    O50     O    0.57252   0.14813   0.14573   1.000
    O51     O    0.57257   0.35210   0.35406   1.000
    N52     N    0.87518   0.40498   0.50684   1.000
    O53     O    0.84388   0.43749   0.50338   1.000
    O54     O    0.90637   0.43749   0.50340   1.000
    N55     N    0.87488   0.09512   0.00636   1.000
    O56     O    0.90617   0.06255   0.00318   1.000
    N57     N    0.37516   0.40483   0.50614   1.000
    O58     O    0.34386   0.43743   0.50307   1.000
    O59     O    0.40636   0.43743   0.50306   1.000
    N60     N    0.62488   0.59517   0.49385   1.000
    O61     O    0.65618   0.56257   0.49689   1.000
    O62     O    0.59368   0.56257   0.49692   1.000
    N63     N    0.12486   0.59501   0.49314   1.000
    O64     O    0.15616   0.56251   0.49659   1.000
    O65     O    0.09366   0.56251   0.49658   1.000
loop_
    _geom_bond_atom_site_label_1
    _geom_bond_atom_site_label_2
    _geom_bond_distance
    _geom_bond_site_symmetry_2
    _ccdc_geom_bond_type
    N8     O9        2.30802      .   S
    Zr4    O9        3.27002      .   S
    N8     O10       2.30906      .   S
    Zr1    O10       3.27125  1_544   S
    N8     O11       2.30841      .   S
    Zr2    O11       3.27226      .   S
    N8     O12       2.30706      .   S
    Zr7    O12       3.27014      .   S
    N13    O14       2.30654      .   S
    Zr4    O14       3.26959  1_556   S
    N13    O15       2.30747      .   S
    Zr7    O15       3.26928      .   S
    N13    O16       2.30865      .   S
    Zr1    O16       3.27271  1_545   S
    N13    O17       2.30936      .   S
    Zr2    O17       3.27161      .   S
    N18    O19       2.30740      .   S
    Zr6    O19       3.26896      .   S
    N18    O20       2.30664      .   S
    Zr4    O20       3.26964  1_565   S
    N18    O21       2.30919      .   S
    Zr2    O21       3.27130      .   S
    N18    O22       2.30864      .   S
    Zr0    O22       3.27268  1_554   S
    N23    O24       2.30881      .   S
    Zr1    O24       3.27295  1_554   S
    N23    O25       2.30970      .   S
    Zr3    O25       3.27188      .   S
    N23    O26       2.30740      .   S
    Zr7    O26       3.26921      .   S
    N27    O28       2.30741      .   S
    Zr6    O28       3.26882  1_455   S
    N27    O29       2.30853      .   S
    Zr0    O29       3.27239  1_445   S
    N27    O30       2.30904      .   S
    Zr3    O30       3.27074      .   S
    N31    O32       2.30908      .   S
    Zr0    O32       3.27126      .   S
    N31    O33       2.30719      .   S
    Zr6    O33       3.27059      .   S
    N31    O34       2.30788      .   S
    Zr4    O34       3.26983  1_566   S
    N31    O35       2.30855      .   S
    Zr2    O35       3.27255      .   S
    N36    O37       0.60922      .   S
    Zr4    O37       1.51532      .   S
    N36    O38       0.60904      .   S
    Zr0    O38       1.51510  1_544   S
    N39    O40       0.60884      .   S
    Zr1    O40       1.51481      .   S
    N39    O41       0.60909      .   S
    Zr4    O41       1.51525  1_566   S
    N42    O43       2.30711      .   S
    Zr6    O43       3.27043  1_455   S
    N42    O44       2.30869      .   S
    Zr3    O44       3.27305      .   S
    N42    O45       2.30918      .   S
    Zr0    O45       3.27135  1_444   S
    N46    O47       0.60889      .   S
    Zr1    O47       1.51497  1_544   S
    N48    O49       2.30822      .   S
    Zr3    O49       3.27171      .   S
    N48    O50       2.30904      .   S
    Zr1    O50       3.27106      .   S
    N48    O51       2.30706      .   S
    Zr7    O51       3.27013      .   S
    N52    O53       0.60875      .   S
    Zr3    O53       1.51470      .   S
    N52    O54       0.60893      .   S
    Zr6    O54       1.51493  1_455   S
    N55    O56       0.60893      .   S
    Zr0    O56       1.51475  1_455   S
    N57    O58       0.60910      .   S
    Zr2    O58       1.51506      .   S
    N57    O59       0.60935      .   S
    Zr7    O59       1.51548      .   S
    N60    O61       0.60908      .   S
    Zr3    O61       1.51503      .   S
    N60    O62       0.60935      .   S
    Zr7    O62       1.51549      .   S
    N63    O64       0.60872      .   S
    Zr2    O64       1.51467      .   S
    N63    O65       0.60902      .   S
    Zr6    O65       1.51526      .   S
