# CIF file generated by openbabel 2.4.90, see http://openbabel.sf.net
data_I
_chemical_name_common ''
_cell_length_a 18.463
_cell_length_b 21.015
_cell_length_c 15.668
_cell_angle_alpha 94.029
_cell_angle_beta 89.958
_cell_angle_gamma 89.91
_space_group_name_H-M_alt 'P 1'
_space_group_name_Hall 'P 1'
loop_
    _symmetry_equiv_pos_as_xyz
    x,y,z
loop_
    _atom_site_label
    _atom_site_type_symbol
    _atom_site_fract_x
    _atom_site_fract_y
    _atom_site_fract_z
    _atom_site_occupancy
    Zn0     Zn   0.13119   0.53568   0.29644   1.000
    Zn1     Zn   0.63120   0.03591   0.29640   1.000
    Zn2     Zn   0.63121   0.53568   0.29644   1.000
    Zn3     Zn   0.37830   0.18585   0.18184   1.000
    Zn4     Zn   0.37832   0.68590   0.18199   1.000
    Zn5     Zn   0.87832   0.18585   0.18184   1.000
    Zn6     Zn   0.87834   0.68590   0.18199   1.000
    Zn7     Zn   0.38116   0.46611   0.70646   1.000
    Zn8     Zn   0.38124   0.96609   0.70659   1.000
    Zn9     Zn   0.88117   0.46611   0.70646   1.000
    Zn10    Zn   0.88125   0.96609   0.70659   1.000
    Zn11    Zn   0.12832   0.31443   0.81839   1.000
    Zn12    Zn   0.12853   0.81423   0.81839   1.000
    Zn13    Zn   0.62834   0.31443   0.81839   1.000
    Zn14    Zn   0.62854   0.81423   0.81839   1.000
    Zn15    Zn   0.13118   0.03591   0.29640   1.000
    C16     C    0.21856   0.27403   0.95262   1.000
    C17     C    0.21842   0.77448   0.95399   1.000
    C18     C    0.71857   0.27403   0.95262   1.000
    C19     C    0.71843   0.77448   0.95399   1.000
    C20     C    0.23140   0.01428   0.43489   1.000
    C21     C    0.23150   0.51418   0.43475   1.000
    C22     C    0.73142   0.01428   0.43489   1.000
    C23     C    0.73151   0.51418   0.43475   1.000
    C24     C    0.46864   0.22602   0.04768   1.000
    C25     C    0.46851   0.72562   0.04745   1.000
    C26     C    0.96865   0.22602   0.04768   1.000
    C27     C    0.96853   0.72562   0.04745   1.000
    C28     C    0.48118   0.48579   0.56646   1.000
    C29     C    0.48120   0.98585   0.56658   1.000
    C30     C    0.98120   0.48579   0.56646   1.000
    C31     C    0.98121   0.98585   0.56658   1.000
    O32     O    0.15289   0.28883   0.93340   1.000
    O33     O    0.15287   0.78884   0.93360   1.000
    O34     O    0.65290   0.28883   0.93340   1.000
    O35     O    0.65289   0.78884   0.93360   1.000
    O36     O    0.27224   0.27759   0.90440   1.000
    O37     O    0.27263   0.77806   0.90670   1.000
    O38     O    0.77225   0.27759   0.90440   1.000
    O39     O    0.77265   0.77806   0.90670   1.000
    O40     O    0.16569   0.02778   0.41324   1.000
    O41     O    0.16576   0.52762   0.41317   1.000
    O42     O    0.66570   0.02778   0.41324   1.000
    O43     O    0.66577   0.52762   0.41317   1.000
    O44     O    0.28406   0.00567   0.38528   1.000
    O45     O    0.28414   0.50560   0.38512   1.000
    O46     O    0.78407   0.00567   0.38528   1.000
    O47     O    0.78415   0.50560   0.38512   1.000
    O48     O    0.40298   0.21109   0.06668   1.000
    O49     O    0.40283   0.71098   0.06667   1.000
    O50     O    0.90299   0.21109   0.06668   1.000
    O51     O    0.90284   0.71098   0.06667   1.000
    O52     O    0.02220   0.22236   0.09590   1.000
    O53     O    0.02204   0.72219   0.09581   1.000
    O54     O    0.52221   0.22236   0.09590   1.000
    O55     O    0.52206   0.72219   0.09581   1.000
    O56     O    0.41567   0.47249   0.58905   1.000
    O57     O    0.41568   0.97256   0.58915   1.000
    O58     O    0.91568   0.47249   0.58905   1.000
    O59     O    0.91569   0.97256   0.58915   1.000
    O60     O    0.03425   0.49437   0.61526   1.000
    O61     O    0.03426   0.99438   0.61540   1.000
    O62     O    0.53426   0.49437   0.61526   1.000
    O63     O    0.53427   0.99438   0.61540   1.000
    Ts64    Ts   0.15157   0.55018   0.26845   1.000
    Ts65    Ts   0.12906   0.50508   0.27508   1.000
    Ts66    Ts   0.09870   0.55020   0.29931   1.000
    Ts67    Ts   0.65154   0.05036   0.26829   1.000
    Ts68    Ts   0.62895   0.00530   0.27517   1.000
    Ts69    Ts   0.59875   0.05051   0.29939   1.000
    Ts70    Ts   0.65159   0.55018   0.26845   1.000
    Ts71    Ts   0.62907   0.50508   0.27508   1.000
    Ts72    Ts   0.59871   0.55020   0.29931   1.000
    Ts73    Ts   0.34691   0.16997   0.17698   1.000
    Ts74    Ts   0.36821   0.21297   0.20703   1.000
    Ts75    Ts   0.39965   0.16995   0.20703   1.000
    Ts76    Ts   0.34688   0.67008   0.17729   1.000
    Ts77    Ts   0.36832   0.71295   0.20745   1.000
    Ts78    Ts   0.39966   0.66990   0.20710   1.000
    Ts79    Ts   0.84692   0.16997   0.17698   1.000
    Ts80    Ts   0.86823   0.21297   0.20703   1.000
    Ts81    Ts   0.89966   0.16995   0.20703   1.000
    Ts82    Ts   0.84689   0.67008   0.17729   1.000
    Ts83    Ts   0.86834   0.71295   0.20745   1.000
    Ts84    Ts   0.89967   0.66990   0.20710   1.000
    Ts85    Ts   0.37884   0.49670   0.72734   1.000
    Ts86    Ts   0.34882   0.45129   0.70334   1.000
    Ts87    Ts   0.40161   0.45155   0.73431   1.000
    Ts88    Ts   0.37903   0.99665   0.72758   1.000
    Ts89    Ts   0.34888   0.95133   0.70348   1.000
    Ts90    Ts   0.40167   0.95136   0.73440   1.000
    Ts91    Ts   0.87885   0.49670   0.72734   1.000
    Ts92    Ts   0.84883   0.45129   0.70334   1.000
    Ts93    Ts   0.90163   0.45155   0.73431   1.000
    Ts94    Ts   0.87905   0.99665   0.72758   1.000
    Ts95    Ts   0.84889   0.95133   0.70348   1.000
    Ts96    Ts   0.90168   0.95136   0.73440   1.000
    Ts97    Ts   0.11825   0.28742   0.79313   1.000
    Ts98    Ts   0.14985   0.33048   0.79363   1.000
    Ts99    Ts   0.09694   0.33043   0.82349   1.000
    Ts100   Ts   0.09709   0.83011   0.82334   1.000
    Ts101   Ts   0.11859   0.78732   0.79282   1.000
    Ts102   Ts   0.15004   0.83034   0.79366   1.000
    Ts103   Ts   0.59695   0.33043   0.82349   1.000
    Ts104   Ts   0.61827   0.28742   0.79313   1.000
    Ts105   Ts   0.64986   0.33048   0.79363   1.000
    Ts106   Ts   0.59710   0.83011   0.82334   1.000
    Ts107   Ts   0.61861   0.78732   0.79282   1.000
    Ts108   Ts   0.65005   0.83034   0.79366   1.000
    Ts109   Ts   0.09873   0.05051   0.29939   1.000
    Ts110   Ts   0.15153   0.05036   0.26829   1.000
    Ts111   Ts   0.12893   0.00530   0.27517   1.000
    Og112   Og   0.22159   0.26498   0.98197   1.000
    Og113   Og   0.22125   0.76550   0.98340   1.000
    Og114   Og   0.72160   0.26498   0.98197   1.000
    Og115   Og   0.72127   0.76550   0.98340   1.000
    Og116   Og   0.23465   0.01124   0.46701   1.000
    Og117   Og   0.23477   0.51115   0.46686   1.000
    Og118   Og   0.73466   0.01124   0.46701   1.000
    Og119   Og   0.73478   0.51115   0.46686   1.000
    Og120   Og   0.47172   0.23516   0.01840   1.000
    Og121   Og   0.47163   0.73461   0.01807   1.000
    Og122   Og   0.97173   0.23516   0.01840   1.000
    Og123   Og   0.97164   0.73461   0.01807   1.000
    Og124   Og   0.48421   0.48882   0.53430   1.000
    Og125   Og   0.48423   0.98889   0.53443   1.000
    Og126   Og   0.98422   0.48882   0.53430   1.000
    Og127   Og   0.98424   0.98889   0.53443   1.000
loop_
    _geom_bond_atom_site_label_1
    _geom_bond_atom_site_label_2
    _geom_bond_distance
    _geom_bond_site_symmetry_2
    _ccdc_geom_bond_type
    C27    O51       1.29223      .   S
    C27    O53       1.25062  1_655   S
    C25    O49       1.29223      .   S
    C25    O55       1.25100      .   S
    C26    O50       1.29244      .   S
    C26    O52       1.25023  1_655   S
    C24    O48       1.29242      .   S
    C24    O54       1.25061      .   S
    O51    Zn6       1.96987      .   S
    O49    Zn4       1.96987      .   S
    O50    Zn5       1.96939      .   S
    O48    Zn3       1.96940      .   S
    Zn1    O42       1.95748      .   S
    Zn15   O40       1.95749      .   S
    Zn0    O41       1.95597      .   S
    Zn2    O43       1.95596      .   S
    O47    C23       1.24914      .   S
    O45    C21       1.24915      .   S
    O46    C22       1.24924      .   S
    O44    C20       1.24923      .   S
    O41    C21       1.29628      .   S
    O43    C23       1.29629      .   S
    O40    C20       1.29637      .   S
    O42    C22       1.29637      .   S
    C30    O58       1.29650      .   S
    C30    O60       1.24852  1_655   S
    C28    O56       1.29648      .   S
    C28    O62       1.24888      .   S
    C31    O59       1.29642      .   S
    C31    O61       1.24857  1_655   S
    C29    O57       1.29640      .   S
    C29    O63       1.24895      .   S
    O58    Zn9       1.95991      .   S
    O56    Zn7       1.95992      .   S
    O59    Zn10      1.96017      .   S
    O57    Zn8       1.96018      .   S
    Zn14   O35       1.97004      .   S
    Zn11   O32       1.96945      .   S
    Zn12   O33       1.97004      .   S
    Zn13   O34       1.96945      .   S
    O38    C18       1.25128      .   S
    O36    C16       1.25128      .   S
    O39    C19       1.25044      .   S
    O37    C17       1.25045      .   S
    O32    C16       1.29225      .   S
    O34    C18       1.29227      .   S
    O35    C19       1.29246      .   S
    O33    C17       1.29246      .   S
    Zn0    Ts64      0.66744      .   S
    Zn0    Ts65      0.70502      .   S
    Zn0    Ts66      0.67260      .   S
    Zn1    Ts67      0.66800      .   S
    Zn1    Ts68      0.70439      .   S
    Zn1    Ts69      0.67282      .   S
    Zn2    Ts70      0.66744      .   S
    Zn2    Ts71      0.70503      .   S
    Zn2    Ts72      0.67261      .   S
    Zn3    Ts73      0.67109      .   S
    Zn3    Ts74      0.69518      .   S
    Zn3    Ts75      0.66412      .   S
    Zn4    Ts76      0.67095      .   S
    Zn4    Ts77      0.69579      .   S
    Zn4    Ts78      0.66436      .   S
    Zn5    Ts79      0.67109      .   S
    Zn5    Ts80      0.69518      .   S
    Zn5    Ts81      0.66412      .   S
    Zn6    Ts82      0.67095      .   S
    Zn6    Ts83      0.69579      .   S
    Zn6    Ts84      0.66435      .   S
    Zn7    Ts85      0.70176      .   S
    Zn7    Ts86      0.67405      .   S
    Zn7    Ts87      0.66727      .   S
    Zn8    Ts88      0.70178      .   S
    Zn8    Ts89      0.67388      .   S
    Zn8    Ts90      0.66837      .   S
    Zn9    Ts91      0.70176      .   S
    Zn9    Ts92      0.67405      .   S
    Zn9    Ts93      0.66727      .   S
    Zn10   Ts94      0.70178      .   S
    Zn10   Ts95      0.67388      .   S
    Zn10   Ts96      0.66837      .   S
    Zn11   Ts97      0.69446      .   S
    Zn11   Ts98      0.66395      .   S
    Zn11   Ts99      0.67140      .   S
    Zn12   Ts100     0.67084      .   S
    Zn12   Ts101     0.69465      .   S
    Zn12   Ts102     0.66406      .   S
    Zn13   Ts103     0.67141      .   S
    Zn13   Ts104     0.69446      .   S
    Zn13   Ts105     0.66394      .   S
    Zn14   Ts106     0.67085      .   S
    Zn14   Ts107     0.69465      .   S
    Zn14   Ts108     0.66406      .   S
    Zn15   Ts109     0.67282      .   S
    Zn15   Ts110     0.66800      .   S
    Zn15   Ts111     0.70439      .   S
    C16    Og112     0.51283      .   S
    C17    Og113     0.51269      .   S
    C18    Og114     0.51283      .   S
    C19    Og115     0.51269      .   S
    C20    Og116     0.51518      .   S
    C21    Og117     0.51510      .   S
    C22    Og118     0.51518      .   S
    C23    Og119     0.51510      .   S
    C24    Og120     0.51276      .   S
    C25    Og121     0.51286      .   S
    C26    Og122     0.51276      .   S
    C27    Og123     0.51286      .   S
    C28    Og124     0.51531      .   S
    C29    Og125     0.51524      .   S
    C30    Og126     0.51530      .   S
    C31    Og127     0.51523      .   S
