# CIF file generated by openbabel 2.4.90, see http://openbabel.sf.net
data_I
_chemical_name_common ''
_cell_length_a 18.463
_cell_length_b 21.015
_cell_length_c 15.668
_cell_angle_alpha 94.029
_cell_angle_beta 89.958
_cell_angle_gamma 89.91
_space_group_name_H-M_alt 'P 1'
_space_group_name_Hall 'P 1'
loop_
    _symmetry_equiv_pos_as_xyz
    x,y,z
loop_
    _atom_site_label
    _atom_site_type_symbol
    _atom_site_fract_x
    _atom_site_fract_y
    _atom_site_fract_z
    _atom_site_occupancy
    Zn0     Zn   0.13119   0.53568   0.29644   1.000
    Zn1     Zn   0.63120   0.03591   0.29640   1.000
    Zn2     Zn   0.63121   0.53568   0.29644   1.000
    Zn3     Zn   0.37830   0.18585   0.18184   1.000
    Zn4     Zn   0.37832   0.68590   0.18199   1.000
    Zn5     Zn   0.87832   0.18585   0.18184   1.000
    Zn6     Zn   0.87834   0.68590   0.18199   1.000
    Zn7     Zn   0.38116   0.46611   0.70646   1.000
    Zn8     Zn   0.38124   0.96609   0.70659   1.000
    Zn9     Zn   0.88117   0.46611   0.70646   1.000
    Zn10    Zn   0.88125   0.96609   0.70659   1.000
    Zn11    Zn   0.12832   0.31443   0.81839   1.000
    Zn12    Zn   0.12853   0.81423   0.81839   1.000
    Zn13    Zn   0.62834   0.31443   0.81839   1.000
    Zn14    Zn   0.62854   0.81423   0.81839   1.000
    Zn15    Zn   0.13118   0.03591   0.29640   1.000
    C16     C    0.21856   0.27403   0.95262   1.000
    C17     C    0.21842   0.77448   0.95399   1.000
    C18     C    0.71857   0.27403   0.95262   1.000
    C19     C    0.71843   0.77448   0.95399   1.000
    C20     C    0.23140   0.01428   0.43489   1.000
    C21     C    0.23150   0.51418   0.43475   1.000
    C22     C    0.73142   0.01428   0.43489   1.000
    C23     C    0.73151   0.51418   0.43475   1.000
    C24     C    0.46864   0.22602   0.04768   1.000
    C25     C    0.46851   0.72562   0.04745   1.000
    C26     C    0.96865   0.22602   0.04768   1.000
    C27     C    0.96853   0.72562   0.04745   1.000
    C28     C    0.48118   0.48579   0.56646   1.000
    C29     C    0.48120   0.98585   0.56658   1.000
    C30     C    0.98120   0.48579   0.56646   1.000
    C31     C    0.98121   0.98585   0.56658   1.000
    O32     O    0.15289   0.28883   0.93340   1.000
    O33     O    0.15287   0.78884   0.93360   1.000
    O34     O    0.65290   0.28883   0.93340   1.000
    O35     O    0.65289   0.78884   0.93360   1.000
    O36     O    0.27224   0.27759   0.90440   1.000
    O37     O    0.27263   0.77806   0.90670   1.000
    O38     O    0.77225   0.27759   0.90440   1.000
    O39     O    0.77265   0.77806   0.90670   1.000
    O40     O    0.16569   0.02778   0.41324   1.000
    O41     O    0.16576   0.52762   0.41317   1.000
    O42     O    0.66570   0.02778   0.41324   1.000
    O43     O    0.66577   0.52762   0.41317   1.000
    O44     O    0.28406   0.00567   0.38528   1.000
    O45     O    0.28414   0.50560   0.38512   1.000
    O46     O    0.78407   0.00567   0.38528   1.000
    O47     O    0.78415   0.50560   0.38512   1.000
    O48     O    0.40298   0.21109   0.06668   1.000
    O49     O    0.40283   0.71098   0.06667   1.000
    O50     O    0.90299   0.21109   0.06668   1.000
    O51     O    0.90284   0.71098   0.06667   1.000
    O52     O    0.02220   0.22236   0.09590   1.000
    O53     O    0.02204   0.72219   0.09581   1.000
    O54     O    0.52221   0.22236   0.09590   1.000
    O55     O    0.52206   0.72219   0.09581   1.000
    O56     O    0.41567   0.47249   0.58905   1.000
    O57     O    0.41568   0.97256   0.58915   1.000
    O58     O    0.91568   0.47249   0.58905   1.000
    O59     O    0.91569   0.97256   0.58915   1.000
    O60     O    0.03425   0.49437   0.61526   1.000
    O61     O    0.03426   0.99438   0.61540   1.000
    O62     O    0.53426   0.49437   0.61526   1.000
    O63     O    0.53427   0.99438   0.61540   1.000
loop_
    _geom_bond_atom_site_label_1
    _geom_bond_atom_site_label_2
    _geom_bond_distance
    _geom_bond_site_symmetry_2
    _ccdc_geom_bond_type
    C27    O51       1.29223      .   S
    C27    O53       1.25062  1_655   S
    C25    O49       1.29223      .   S
    C25    O55       1.25100      .   S
    C26    O50       1.29244      .   S
    C26    O52       1.25023  1_655   S
    C24    O48       1.29242      .   S
    C24    O54       1.25061      .   S
    O51    Zn6       1.96987      .   S
    O49    Zn4       1.96987      .   S
    O50    Zn5       1.96939      .   S
    O48    Zn3       1.96940      .   S
    Zn1    O42       1.95748      .   S
    Zn15   O40       1.95749      .   S
    Zn0    O41       1.95597      .   S
    Zn2    O43       1.95596      .   S
    O47    C23       1.24914      .   S
    O45    C21       1.24915      .   S
    O46    C22       1.24924      .   S
    O44    C20       1.24923      .   S
    O41    C21       1.29628      .   S
    O43    C23       1.29629      .   S
    O40    C20       1.29637      .   S
    O42    C22       1.29637      .   S
    C30    O58       1.29650      .   S
    C30    O60       1.24852  1_655   S
    C28    O56       1.29648      .   S
    C28    O62       1.24888      .   S
    C31    O59       1.29642      .   S
    C31    O61       1.24857  1_655   S
    C29    O57       1.29640      .   S
    C29    O63       1.24895      .   S
    O58    Zn9       1.95991      .   S
    O56    Zn7       1.95992      .   S
    O59    Zn10      1.96017      .   S
    O57    Zn8       1.96018      .   S
    Zn14   O35       1.97004      .   S
    Zn11   O32       1.96945      .   S
    Zn12   O33       1.97004      .   S
    Zn13   O34       1.96945      .   S
    O38    C18       1.25128      .   S
    O36    C16       1.25128      .   S
    O39    C19       1.25044      .   S
    O37    C17       1.25045      .   S
    O32    C16       1.29225      .   S
    O34    C18       1.29227      .   S
    O35    C19       1.29246      .   S
    O33    C17       1.29246      .   S
