# CIF file generated by openbabel 2.4.90, see http://openbabel.sf.net
data_I
_chemical_name_common ''
_cell_length_a 18.463
_cell_length_b 21.015
_cell_length_c 15.668
_cell_angle_alpha 94.029
_cell_angle_beta 89.958
_cell_angle_gamma 89.91
_space_group_name_H-M_alt 'P 1'
_space_group_name_Hall 'P 1'
loop_
    _symmetry_equiv_pos_as_xyz
    x,y,z
loop_
    _atom_site_label
    _atom_site_type_symbol
    _atom_site_fract_x
    _atom_site_fract_y
    _atom_site_fract_z
    _atom_site_occupancy
    C0      C    0.21856   0.27403   0.95262   1.000
    C1      C    0.21842   0.77448   0.95399   1.000
    C2      C    0.71857   0.27403   0.95262   1.000
    C3      C    0.71843   0.77448   0.95399   1.000
    C4      C    0.23140   0.01428   0.43489   1.000
    C5      C    0.23150   0.51418   0.43475   1.000
    C6      C    0.73142   0.01428   0.43489   1.000
    C7      C    0.73151   0.51418   0.43475   1.000
    C8      C    0.46864   0.22602   0.04768   1.000
    C9      C    0.46851   0.72562   0.04745   1.000
    C10     C    0.96865   0.22602   0.04768   1.000
    C11     C    0.96853   0.72562   0.04745   1.000
    C12     C    0.48118   0.48579   0.56646   1.000
    C13     C    0.48120   0.98585   0.56658   1.000
    C14     C    0.98120   0.48579   0.56646   1.000
    C15     C    0.98121   0.98585   0.56658   1.000
