# CIF file generated by openbabel 2.4.90, see http://openbabel.sf.net
data_I
_chemical_name_common ''
_cell_length_a 18.463
_cell_length_b 21.015
_cell_length_c 15.668
_cell_angle_alpha 94.029
_cell_angle_beta 89.958
_cell_angle_gamma 89.91
_space_group_name_H-M_alt 'P 1'
_space_group_name_Hall 'P 1'
loop_
    _symmetry_equiv_pos_as_xyz
    x,y,z
loop_
    _atom_site_label
    _atom_site_type_symbol
    _atom_site_fract_x
    _atom_site_fract_y
    _atom_site_fract_z
    _atom_site_occupancy
    N0      N    0.93644   0.46194   0.35238   1.000
    N1      N    0.68010   0.75351   0.16535   1.000
    N2      N    0.18721   0.53851   0.64785   1.000
    N3      N    0.68708   0.03839   0.64863   1.000
    N4      N    0.18707   0.03839   0.64863   1.000
    N5      N    0.68722   0.53851   0.64785   1.000
    N6      N    0.18009   0.75351   0.16534   1.000
    N7      N    0.43122   0.24785   0.83653   1.000
    N8      N    0.43080   0.74748   0.83601   1.000
    N9      N    0.68098   0.25318   0.16446   1.000
    N10     N    0.18096   0.25318   0.16446   1.000
    N11     N    0.93122   0.24785   0.83653   1.000
    N12     N    0.93643   0.96189   0.35317   1.000
    N13     N    0.43642   0.96189   0.35317   1.000
    N14     N    0.43643   0.46194   0.35238   1.000
    N15     N    0.93080   0.74748   0.83601   1.000
    Zr16    Zr   0.45307   0.47969   0.61931   1.000
    O17     O    0.35650   0.48544   0.64706   1.000
    O18     O    0.43730   0.41287   0.70584   1.000
    O19     O    0.42865   0.55471   0.70310   1.000
    O20     O    0.45707   0.47791   0.52730   1.000
    Zr21    Zr   0.19300   0.28872   0.90220   1.000
    O22     O    0.17157   0.22243   0.80838   1.000
    O23     O    0.18345   0.36361   0.80838   1.000
    O24     O    0.09962   0.29093   0.86674   1.000
    O25     O    0.19752   0.27277   0.99138   1.000
    Zr26    Zr   0.69301   0.28872   0.90220   1.000
    O27     O    0.69753   0.27277   0.99138   1.000
    O28     O    0.67159   0.22243   0.80838   1.000
    O29     O    0.68347   0.36361   0.80838   1.000
    O30     O    0.59963   0.29093   0.86674   1.000
    Zr31    Zr   0.94304   0.21133   0.09802   1.000
    O32     O    0.92142   0.27778   0.19201   1.000
    O33     O    0.84957   0.20947   0.13377   1.000
    O34     O    0.93321   0.13664   0.19221   1.000
    O35     O    0.94764   0.22756   0.00909   1.000
    Zr36    Zr   0.94294   0.71117   0.09798   1.000
    O37     O    0.93316   0.63655   0.19200   1.000
    O38     O    0.84929   0.70951   0.13406   1.000
    O39     O    0.92141   0.77768   0.19233   1.000
    O40     O    0.94747   0.72723   0.00884   1.000
    Zr41    Zr   0.70310   0.02091   0.38245   1.000
    O42     O    0.70739   0.02248   0.47415   1.000
    O43     O    0.67853   0.94633   0.29870   1.000
    O44     O    0.68722   0.08814   0.29590   1.000
    O45     O    0.60628   0.01538   0.35474   1.000
    Zr46    Zr   0.69313   0.78890   0.90317   1.000
    O47     O    0.68353   0.86365   0.80907   1.000
    O48     O    0.67178   0.72255   0.80856   1.000
    O49     O    0.59961   0.79083   0.86704   1.000
    O50     O    0.69726   0.77308   0.99245   1.000
    Zr51    Zr   0.20315   0.52077   0.38237   1.000
    O52     O    0.10630   0.51524   0.35446   1.000
    O53     O    0.18704   0.58812   0.29614   1.000
    O54     O    0.17881   0.44613   0.29840   1.000
    O55     O    0.20748   0.52242   0.47388   1.000
    Zr56    Zr   0.95310   0.97972   0.61943   1.000
    O57     O    0.95710   0.97794   0.52760   1.000
    O58     O    0.85650   0.98544   0.64735   1.000
    O59     O    0.92884   0.05480   0.70337   1.000
    O60     O    0.93723   0.91273   0.70579   1.000
    Zr61    Zr   0.70316   0.52077   0.38237   1.000
    O62     O    0.70749   0.52242   0.47388   1.000
    O63     O    0.68705   0.58812   0.29614   1.000
    O64     O    0.60630   0.51524   0.35446   1.000
    O65     O    0.67883   0.44612   0.29840   1.000
    Zr66    Zr   0.44303   0.21133   0.09802   1.000
    O67     O    0.44764   0.22756   0.00909   1.000
    O68     O    0.42142   0.27778   0.19201   1.000
    O69     O    0.34956   0.20947   0.13377   1.000
    O70     O    0.43320   0.13664   0.19221   1.000
    Zr71    Zr   0.95307   0.47969   0.61931   1.000
    O72     O    0.95708   0.47791   0.52730   1.000
    O73     O    0.85651   0.48544   0.64706   1.000
    O74     O    0.93731   0.41287   0.70584   1.000
    O75     O    0.92866   0.55471   0.70310   1.000
    Zr76    Zr   0.45310   0.97972   0.61943   1.000
    O77     O    0.35649   0.98544   0.64735   1.000
    O78     O    0.42884   0.05480   0.70337   1.000
    O79     O    0.43722   0.91273   0.70579   1.000
    O80     O    0.45709   0.97794   0.52760   1.000
    Zr81    Zr   0.20309   0.02091   0.38245   1.000
    O82     O    0.20738   0.02248   0.47415   1.000
    O83     O    0.17852   0.94633   0.29870   1.000
    O84     O    0.18721   0.08814   0.29590   1.000
    O85     O    0.10628   0.01538   0.35474   1.000
    Zr86    Zr   0.19311   0.78890   0.90317   1.000
    O87     O    0.19725   0.77308   0.99245   1.000
    O88     O    0.18352   0.86365   0.80907   1.000
    O89     O    0.17176   0.72255   0.80856   1.000
    O90     O    0.09960   0.79083   0.86704   1.000
    Zr91    Zr   0.44293   0.71117   0.09798   1.000
    O92     O    0.44746   0.72723   0.00884   1.000
    O93     O    0.43316   0.63655   0.19200   1.000
    O94     O    0.34928   0.70951   0.13406   1.000
    O95     O    0.42140   0.77768   0.19233   1.000
loop_
    _geom_bond_atom_site_label_1
    _geom_bond_atom_site_label_2
    _geom_bond_distance
    _geom_bond_site_symmetry_2
    _ccdc_geom_bond_type
    Zr16   O17       1.83673      .   S
    N2     O17       3.31666      .   S
    Zr16   O18       2.04030      .   S
    N7     O18       4.15100      .   S
    Zr16   O19       2.02944      .   S
    N8     O19       4.42311      .   S
    Zr16   O20       1.44123      .   S
    N14    O20       2.76447      .   S
    Zr21   O22       1.99308      .   S
    N4     O22       4.46547      .   S
    Zr21   O23       2.23473      .   S
    N2     O23       4.59768      .   S
    Zr21   O24       1.81335      .   S
    N11    O24       3.26510  1_655   S
    Zr21   O25       1.46196      .   S
    N10    O25       2.78803  1_554   S
    Zr26   O27       1.46196      .   S
    N9     O27       2.78803  1_554   S
    Zr26   O28       1.99308      .   S
    N3     O28       4.46547      .   S
    Zr26   O29       2.23473      .   S
    N5     O29       4.59768      .   S
    Zr26   O30       1.81344      .   S
    N7     O30       3.26536      .   S
    Zr31   O32       1.99663      .   S
    N0     O32       4.47275      .   S
    Zr31   O33       1.81526      .   S
    N9     O33       3.26969      .   S
    Zr31   O34       2.23616      .   S
    N12    O34       4.59899  1_565   S
    Zr31   O35       1.46018      .   S
    N11    O35       2.78322  1_556   S
    Zr36   O37       2.23314      .   S
    N0     O37       4.59097      .   S
    Zr36   O38       1.81990      .   S
    N1     O38       3.28288      .   S
    Zr36   O39       2.00091      .   S
    N12    O39       4.47746      .   S
    Zr36   O40       1.46207      .   S
    N15    O40       2.78762  1_556   S
    Zr41   O42       1.43703      .   S
    N3     O42       2.75603      .   S
    Zr41   O43       2.02436  1_545   S
    N1     O43       4.42677      .   S
    Zr41   O44       2.04696      .   S
    N9     O44       4.15756      .   S
    Zr41   O45       1.84166      .   S
    N13    O45       3.33269  1_565   S
    Zr46   O47       2.23550      .   S
    N3     O47       4.59415  1_545   S
    Zr46   O48       2.00241      .   S
    N5     O48       4.47285      .   S
    Zr46   O49       1.81874      .   S
    N8     O49       3.27559      .   S
    Zr46   O50       1.46233      .   S
    N1     O50       2.78637  1_554   S
    Zr51   O52       1.84307      .   S
    N0     O52       3.33115  1_655   S
    Zr51   O53       2.04570      .   S
    N6     O53       4.15883      .   S
    Zr51   O54       2.02651      .   S
    N10    O54       4.43293      .   S
    Zr51   O55       1.43399      .   S
    N2     O55       2.74833      .   S
    Zr56   O57       1.43853      .   S
    N12    O57       2.75688      .   S
    Zr56   O58       1.83790      .   S
    N3     O58       3.31791  1_545   S
    Zr56   O59       2.03107  1_565   S
    N11    O59       4.42990      .   S
    Zr56   O60       2.04138      .   S
    N15    O60       4.15129      .   S
    Zr61   O62       1.43399      .   S
    N5     O62       2.74833      .   S
    Zr61   O63       2.04569      .   S
    N1     O63       4.15881      .   S
    Zr61   O64       1.84315      .   S
    N14    O64       3.33138      .   S
    Zr61   O65       2.02651      .   S
    N9     O65       4.43293      .   S
    Zr66   O67       1.46018      .   S
    N7     O67       2.78322  1_556   S
    Zr66   O68       1.99664      .   S
    N14    O68       4.47275      .   S
    Zr66   O69       1.81532      .   S
    N10    O69       3.26974      .   S
    Zr66   O70       2.23616      .   S
    N13    O70       4.59899  1_565   S
    Zr71   O72       1.44123      .   S
    N0     O72       2.76447      .   S
    Zr71   O73       1.83667      .   S
    N5     O73       3.31661      .   S
    Zr71   O74       2.04030      .   S
    N11    O74       4.15100      .   S
    Zr71   O75       2.02944      .   S
    N15    O75       4.42311      .   S
    Zr76   O77       1.83796      .   S
    N4     O77       3.31797  1_545   S
    Zr76   O78       2.03108  1_565   S
    N7     O78       4.42990      .   S
    Zr76   O79       2.04139      .   S
    N8     O79       4.15129      .   S
    Zr76   O80       1.43853      .   S
    N13    O80       2.75688      .   S
    Zr81   O82       1.43703      .   S
    N4     O82       2.75603      .   S
    Zr81   O83       2.02437  1_545   S
    N6     O83       4.42678      .   S
    Zr81   O84       2.04696      .   S
    N10    O84       4.15756      .   S
    Zr81   O85       1.84158      .   S
    N12    O85       3.33246  1_665   S
    Zr86   O87       1.46231      .   S
    N6     O87       2.78633  1_554   S
    Zr86   O88       2.23550      .   S
    N4     O88       4.59416  1_545   S
    Zr86   O89       2.00241      .   S
    N2     O89       4.47285      .   S
    Zr86   O90       1.81866      .   S
    N15    O90       3.27534  1_655   S
    Zr91   O92       1.46207      .   S
    N8     O92       2.78762  1_556   S
    Zr91   O93       2.23314      .   S
    N14    O93       4.59097      .   S
    Zr91   O94       1.81995      .   S
    N6     O94       3.28292      .   S
    Zr91   O95       2.00091      .   S
    N13    O95       4.47746      .   S
