# CIF file generated by openbabel 2.4.90, see http://openbabel.sf.net
data_I
_chemical_name_common 'VESTA_phase_1'
_cell_length_a 15.743
_cell_length_b 15.75
_cell_length_c 20.005
_cell_angle_alpha 90.001
_cell_angle_beta 90
_cell_angle_gamma 90.008
_space_group_name_H-M_alt 'P 1'
_space_group_name_Hall 'P 1'
loop_
    _symmetry_equiv_pos_as_xyz
    x,y,z
loop_
    _atom_site_label
    _atom_site_type_symbol
    _atom_site_fract_x
    _atom_site_fract_y
    _atom_site_fract_z
    _atom_site_occupancy
    Zn0     Zn   0.24866   0.74805   0.60000   1.000
    Zn1     Zn   0.74843   0.24812   0.49995   1.000
    Zn2     Zn   0.74865   0.24808   0.99992   1.000
    Zn3     Zn   0.24843   0.74811   0.50002   1.000
    Zn4     Zn   0.08344   0.91516   0.99996   1.000
    Zn5     Zn   0.41500   0.58124   0.99999   1.000
    Zn6     Zn   0.58231   0.08127   0.50004   1.000
    Zn7     Zn   0.91475   0.41497   0.50003   1.000
    Zn8     Zn   0.91499   0.08125   0.99999   1.000
    Zn9     Zn   0.58333   0.41517   0.20000   1.000
    Zn10    Zn   0.41478   0.91495   0.49994   1.000
    Zn11    Zn   0.08228   0.58125   0.49993   1.000
    H12     H    0.15393   0.95969   0.73655   1.000
    H13     H    0.13669   0.94172   0.85036   1.000
    H14     H    0.21014   0.05571   0.05952   1.000
    H15     H    0.35683   0.83496   0.11581   1.000
    H16     H    0.34522   0.53794   0.73649   1.000
    H17     H    0.36226   0.55531   0.85034   1.000
    H18     H    0.28892   0.44050   0.06000   1.000
    H19     H    0.14126   0.66081   0.11560   1.000
    H20     H    0.53695   0.15476   0.23733   1.000
    H21     H    0.56048   0.13118   0.34972   1.000
    H22     H    0.44129   0.20675   0.56081   1.000
    H23     H    0.66159   0.35524   0.61537   1.000
    H24     H    0.96030   0.34216   0.23690   1.000
    H25     H    0.93665   0.36549   0.34938   1.000
    H26     H    0.05591   0.29007   0.56110   1.000
    H27     H    0.83608   0.14046   0.61497   1.000
    H28     H    0.84494   0.45889   0.76357   1.000
    H29     H    0.86151   0.44133   0.64973   1.000
    H30     H    0.78890   0.55565   0.44013   1.000
    H31     H    0.64075   0.33557   0.38450   1.000
    H32     H    0.65325   0.03711   0.76339   1.000
    H33     H    0.63614   0.05475   0.64950   1.000
    H34     H    0.70911   0.94068   0.43983   1.000
    H35     H    0.85637   0.16145   0.38443   1.000
    H36     H    0.46072   0.65433   0.26293   1.000
    H37     H    0.43779   0.63151   0.15034   1.000
    H38     H    0.55612   0.70657   0.93928   1.000
    H39     H    0.33601   0.85520   0.88461   1.000
    H40     H    0.03759   0.84247   0.26316   1.000
    H41     H    0.06169   0.86604   0.15072   1.000
    H42     H    0.94178   0.79029   0.93883   1.000
    H43     H    0.16175   0.64123   0.88440   1.000
    H44     H    0.84527   0.03798   0.26347   1.000
    H45     H    0.86223   0.05526   0.14960   1.000
    H46     H    0.78890   0.94049   0.93998   1.000
    H47     H    0.64127   0.16084   0.88429   1.000
    H48     H    0.65390   0.45969   0.26342   1.000
    H49     H    0.63658   0.44165   0.14963   1.000
    H50     H    0.71004   0.55570   0.94043   1.000
    H51     H    0.85682   0.33502   0.88420   1.000
    H52     H    0.46031   0.84216   0.76307   1.000
    H53     H    0.43672   0.86544   0.65057   1.000
    H54     H    0.55589   0.79001   0.43890   1.000
    H55     H    0.33605   0.64047   0.38499   1.000
    H56     H    0.03688   0.65480   0.76262   1.000
    H57     H    0.06047   0.63114   0.65026   1.000
    H58     H    0.94125   0.70675   0.43916   1.000
    H59     H    0.16162   0.85518   0.38458   1.000
    H60     H    0.15323   0.53710   0.23659   1.000
    H61     H    0.13617   0.55468   0.35040   1.000
    H62     H    0.20907   0.44070   0.56013   1.000
    H63     H    0.35636   0.66141   0.61554   1.000
    H64     H    0.34501   0.95884   0.23641   1.000
    H65     H    0.36165   0.94124   0.35023   1.000
    H66     H    0.28899   0.05567   0.55988   1.000
    H67     H    0.14074   0.83560   0.61537   1.000
    H68     H    0.53756   0.34250   0.73679   1.000
    H69     H    0.56159   0.36600   0.84925   1.000
    H70     H    0.44179   0.29024   0.06113   1.000
    H71     H    0.66178   0.14127   0.11550   1.000
    H72     H    0.96077   0.15439   0.73706   1.000
    H73     H    0.93776   0.13149   0.84963   1.000
    H74     H    0.05615   0.20657   0.06067   1.000
    H75     H    0.83601   0.35519   0.11538   1.000
    H76     H    0.09431   0.09444   0.55587   1.000
    H77     H    0.40296   0.40192   0.55600   1.000
    H78     H    0.40386   0.09456   0.05599   1.000
    H79     H    0.09478   0.40157   0.05602   1.000
    H80     H    0.90383   0.59457   0.94390   1.000
    H81     H    0.59474   0.90158   0.94396   1.000
    H82     H    0.59426   0.59439   0.44410   1.000
    H83     H    0.90297   0.90190   0.44395   1.000
    C84     C    0.11685   0.00830   0.71096   1.000
    C85     C    0.13161   0.02217   0.64279   1.000
    C86     C    0.08633   0.98674   0.86117   1.000
    C87     C    0.19133   0.96851   0.60510   1.000
    C88     C    0.23724   0.99287   0.06630   1.000
    C89     C    0.31061   0.87993   0.09655   1.000
    C90     C    0.38190   0.48908   0.71087   1.000
    C91     C    0.36648   0.47483   0.64283   1.000
    C92     C    0.41268   0.51033   0.86100   1.000
    C93     C    0.30641   0.52826   0.60525   1.000
    C94     C    0.26153   0.50321   0.06663   1.000
    C95     C    0.18767   0.61595   0.09653   1.000
    C96     C    0.48913   0.11707   0.21139   1.000
    C97     C    0.47545   0.13201   0.14323   1.000
    C98     C    0.51308   0.08315   0.36082   1.000
    C99     C    0.52890   0.19219   0.10580   1.000
    C100    C    0.50399   0.23434   0.56716   1.000
    C101    C    0.61675   0.30860   0.59653   1.000
    C102    C    0.00849   0.37960   0.21112   1.000
    C103    C    0.02247   0.36453   0.14301   1.000
    C104    C    0.98415   0.41337   0.36062   1.000
    C105    C    0.96896   0.30447   0.10547   1.000
    C106    C    0.99328   0.26220   0.56727   1.000
    C107    C    0.88076   0.18735   0.59627   1.000
    C108    C    0.88172   0.50777   0.78909   1.000
    C109    C    0.86684   0.52181   0.85721   1.000
    C110    C    0.91184   0.48638   0.63888   1.000
    C111    C    0.80709   0.46820   0.89491   1.000
    C112    C    0.76138   0.49298   0.43352   1.000
    C113    C    0.68729   0.38034   0.40365   1.000
    C114    C    0.61637   0.98836   0.78900   1.000
    C115    C    0.63153   0.97424   0.85709   1.000
    C116    C    0.58566   0.00982   0.63885   1.000
    C117    C    0.69146   0.02781   0.89470   1.000
    C118    C    0.73632   0.00353   0.43325   1.000
    C119    C    0.80998   0.11647   0.40345   1.000
    C120    C    0.50882   0.61689   0.28877   1.000
    C121    C    0.52244   0.63174   0.35696   1.000
    C122    C    0.48509   0.58343   0.13918   1.000
    C123    C    0.46885   0.69170   0.39440   1.000
    C124    C    0.49345   0.73423   0.93292   1.000
    C125    C    0.38080   0.80856   0.90350   1.000
    C126    C    0.98948   0.88002   0.28892   1.000
    C127    C    0.97531   0.86487   0.35699   1.000
    C128    C    0.01417   0.91389   0.13946   1.000
    C129    C    0.02861   0.80462   0.39447   1.000
    C130    C    0.00443   0.76251   0.93255   1.000
    C131    C    0.11700   0.68794   0.90326   1.000
    C132    C    0.88193   0.98908   0.28909   1.000
    C133    C    0.86651   0.97483   0.35713   1.000
    C134    C    0.91268   0.01032   0.13880   1.000
    C135    C    0.80644   0.02829   0.39471   1.000
    C136    C    0.76151   0.00324   0.93335   1.000
    C137    C    0.68767   0.11598   0.90344   1.000
    C138    C    0.61680   0.50825   0.28902   1.000
    C139    C    0.63156   0.52212   0.35719   1.000
    C140    C    0.58624   0.48670   0.13882   1.000
    C141    C    0.69130   0.46850   0.39487   1.000
    C142    C    0.73716   0.49289   0.93366   1.000
    C143    C    0.81058   0.37998   0.90345   1.000
    C144    C    0.50848   0.87960   0.78885   1.000
    C145    C    0.52244   0.86454   0.85690   1.000
    C146    C    0.48421   0.91334   0.63934   1.000
    C147    C    0.46896   0.80448   0.89450   1.000
    C148    C    0.49327   0.76215   0.43272   1.000
    C149    C    0.38074   0.68733   0.40370   1.000
    C150    C    0.98904   0.61710   0.78850   1.000
    C151    C    0.97539   0.63203   0.85670   1.000
    C152    C    0.01305   0.58313   0.63915   1.000
    C153    C    0.02889   0.69220   0.89417   1.000
    C154    C    0.00399   0.73433   0.43281   1.000
    C155    C    0.11677   0.80856   0.40343   1.000
    C156    C    0.11637   0.48837   0.21097   1.000
    C157    C    0.13155   0.47424   0.14289   1.000
    C158    C    0.08567   0.50978   0.36113   1.000
    C159    C    0.19147   0.52778   0.10528   1.000
    C160    C    0.23629   0.50351   0.56670   1.000
    C161    C    0.30996   0.61644   0.59650   1.000
    C162    C    0.38180   0.00775   0.21088   1.000
    C163    C    0.36690   0.02179   0.14276   1.000
    C164    C    0.41194   0.98632   0.36108   1.000
    C165    C    0.30714   0.96816   0.10507   1.000
    C166    C    0.26143   0.99298   0.56647   1.000
    C167    C    0.18729   0.88036   0.59629   1.000
    C168    C    0.48947   0.38005   0.71103   1.000
    C169    C    0.47530   0.36489   0.64296   1.000
    C170    C    0.51409   0.41388   0.86050   1.000
    C171    C    0.52860   0.30464   0.60549   1.000
    C172    C    0.50443   0.26248   0.06740   1.000
    C173    C    0.61702   0.18796   0.09671   1.000
    C174    C    0.00888   0.11694   0.71121   1.000
    C175    C    0.02250   0.13179   0.64303   1.000
    C176    C    0.98510   0.08343   0.86080   1.000
    C177    C    0.96886   0.19175   0.60550   1.000
    C178    C    0.99345   0.23423   0.06704   1.000
    C179    C    0.88080   0.30856   0.09640   1.000
    C180    C    0.05638   0.05604   0.74645   1.000
    C181    C    0.08516   0.08516   0.60900   1.000
    C182    C    0.04341   0.04288   0.81820   1.000
    C183    C    0.44245   0.44129   0.74627   1.000
    C184    C    0.41252   0.41150   0.60945   1.000
    C185    C    0.45574   0.45449   0.81800   1.000
    C186    C    0.44198   0.05574   0.24646   1.000
    C187    C    0.41304   0.08514   0.10950   1.000
    C188    C    0.45492   0.04249   0.31823   1.000
    C189    C    0.05578   0.44065   0.24630   1.000
    C190    C    0.08532   0.41107   0.10949   1.000
    C191    C    0.04260   0.45387   0.31810   1.000
    C192    C    0.94190   0.55577   0.75350   1.000
    C193    C    0.91299   0.58515   0.89047   1.000
    C194    C    0.95483   0.54251   0.68173   1.000
    C195    C    0.55578   0.94064   0.75360   1.000
    C196    C    0.58529   0.91108   0.89049   1.000
    C197    C    0.54261   0.95386   0.68182   1.000
    C198    C    0.55632   0.55599   0.25353   1.000
    C199    C    0.58511   0.58510   0.39059   1.000
    C200    C    0.54335   0.54283   0.18170   1.000
    C201    C    0.94247   0.94128   0.25369   1.000
    C202    C    0.91253   0.91149   0.39050   1.000
    C203    C    0.95576   0.95447   0.18192   1.000
    N204    N    0.05602   0.99358   0.92403   1.000
    N205    N    0.20168   0.92435   0.03670   1.000
    N206    N    0.24738   0.85389   0.05566   1.000
    N207    N    0.44290   0.50329   0.92394   1.000
    N208    N    0.29684   0.57176   0.03690   1.000
    N209    N    0.25080   0.64211   0.05560   1.000
    N210    N    0.50512   0.05356   0.42379   1.000
    N211    N    0.57254   0.19906   0.53743   1.000
    N212    N    0.64288   0.24533   0.55577   1.000
    N213    N    0.99205   0.44283   0.42364   1.000
    N214    N    0.92469   0.29716   0.53737   1.000
    N215    N    0.85449   0.25053   0.55548   1.000
    N216    N    0.94201   0.49326   0.57598   1.000
    N217    N    0.79654   0.42438   0.46322   1.000
    N218    N    0.75038   0.35411   0.44458   1.000
    N219    N    0.55533   0.00000   0.57599   1.000
    N220    N    0.70070   0.07197   0.46284   1.000
    N221    N    0.74662   0.14244   0.44424   1.000
    N222    N    0.49286   0.55380   0.07619   1.000
    N223    N    0.42487   0.69911   0.96272   1.000
    N224    N    0.35458   0.74542   0.94436   1.000
    N225    N    0.00000   0.94318   0.07639   1.000
    N226    N    0.07302   0.79749   0.96245   1.000
    N227    N    0.14323   0.75103   0.94416   1.000
    N228    N    0.94291   0.00000   0.07600   1.000
    N229    N    0.79683   0.07179   0.96303   1.000
    N230    N    0.75080   0.14214   0.94437   1.000
    N231    N    0.55594   0.49353   0.07595   1.000
    N232    N    0.70160   0.42437   0.96318   1.000
    N233    N    0.74734   0.35392   0.94432   1.000
    N234    N    0.49208   0.94280   0.57632   1.000
    N235    N    0.42469   0.79714   0.46261   1.000
    N236    N    0.35448   0.75052   0.44449   1.000
    N237    N    0.00000   0.55354   0.57618   1.000
    N238    N    0.07253   0.69905   0.46255   1.000
    N239    N    0.14288   0.74529   0.44420   1.000
    N240    N    0.05533   0.50290   0.42398   1.000
    N241    N    0.20067   0.57196   0.53713   1.000
    N242    N    0.24661   0.64242   0.55573   1.000
    N243    N    0.44210   0.99324   0.42398   1.000
    N244    N    0.29658   0.92439   0.53675   1.000
    N245    N    0.25038   0.85412   0.55537   1.000
    N246    N    0.50613   0.44318   0.92357   1.000
    N247    N    0.57300   0.29748   0.03752   1.000
    N248    N    0.64323   0.25105   0.05581   1.000
    N249    N    0.99290   0.05381   0.92378   1.000
    N250    N    0.92487   0.19911   0.03724   1.000
    N251    N    0.85458   0.24542   0.05561   1.000
loop_
    _geom_bond_atom_site_label_1
    _geom_bond_atom_site_label_2
    _geom_bond_distance
    _geom_bond_site_symmetry_2
    _ccdc_geom_bond_type
    N205   N206      1.37597      .   S
    N205   C88       1.35225      .   S
    N205   Zn4       2.00639  1_554   S
    N208   N209      1.37593      .   S
    N208   C94       1.35210      .   S
    N208   Zn5       2.00683  1_554   S
    N250   N251      1.37535      .   S
    N250   C178      1.35172      .   S
    N250   Zn8       2.00634  1_554   S
    N247   N248      1.37523      .   S
    N247   C172      1.35149      .   S
    N209   C95       1.35192      .   S
    N251   C179      1.35090      .   S
    N251   Zn2       2.00598  1_554   S
    N206   C89       1.35206      .   S
    N248   C173      1.35171      .   S
    N248   Zn2       2.00170  1_554   S
    H78    C187      1.09032      .   S
    H79    C190      1.09030      .   S
    H14    C88       1.08639  1_545   S
    H18    C94       1.08604      .   S
    H74    C178      1.08639  1_455   S
    H70    C172      1.08596      .   S
    C88    C165      1.40143      .   S
    C94    C159      1.40142      .   S
    C178   C105      1.40138      .   S
    C172   C99       1.40158      .   S
    N231   N222      1.37391      .   S
    N231   C140      1.34943      .   S
    N228   N225      1.26845  1_645   S
    N228   C134      1.35321      .   S
    N228   Zn8       2.03542  1_554   S
    N222   C122      1.34928      .   S
    N222   Zn5       2.00333  1_554   S
    N225   C128      1.36183      .   S
    N225   Zn4       2.06358  1_554   S
    C179   C105      1.40120      .   S
    C179   H75       1.08668      .   S
    C95    C159      1.40100      .   S
    C95    H19       1.08565      .   S
    C89    C165      1.40104      .   S
    C89    H15       1.08616      .   S
    C173   C99       1.40075      .   S
    C173   H71       1.08564      .   S
    C165   C163      1.47202  1_565   S
    C159   C157      1.47209      .   S
    C105   C103      1.47244  1_655   S
    C99    C97       1.47209      .   S
    C190   C157      1.40208      .   S
    C190   C103      1.40207      .   S
    C187   C163      1.40202      .   S
    C187   C97       1.40194      .   S
    C134   H45       1.08575      .   S
    C134   C203      1.40636  1_545   S
    C140   H49       1.08550      .   S
    C140   C200      1.40485      .   S
    C122   H37       1.08549      .   S
    C122   C200      1.40483      .   S
    C128   H41       1.08555      .   S
    C128   C203      1.40557  1_455   S
    C163   C162      1.40037      .   S
    C157   C156      1.40055      .   S
    C103   C102      1.40044      .   S
    C97    C96       1.40036      .   S
    C200   C198      1.46610      .   S
    C203   C201      1.46573      .   S
    C162   H64       1.09057  1_545   S
    C162   C186      1.40554      .   S
    C156   H60       1.09023      .   S
    C156   C189      1.40499      .   S
    C102   H24       1.09044  1_455   S
    C102   C189      1.40497      .   S
    C96    H20       1.09016      .   S
    C96    C186      1.40564      .   S
    C189   C191      1.46611      .   S
    C186   C188      1.46509      .   S
    C198   C120      1.40581      .   S
    C198   C138      1.40572      .   S
    C201   C126      1.40557      .   S
    C201   C132      1.40593      .   S
    H36    C120      1.09019      .   S
    H40    C126      1.09045  1_455   S
    H48    C138      1.09020      .   S
    H44    C132      1.09054  1_545   S
    C120   C121      1.40057      .   S
    C126   C127      1.40040      .   S
    C138   C139      1.40051      .   S
    C132   C133      1.40073      .   S
    C191   C104      1.40606  1_455   S
    C191   C158      1.40569      .   S
    C188   C98       1.40499      .   S
    C188   C164      1.40547  1_545   S
    H25    C104      1.08551      .   S
    H21    C98       1.08548      .   S
    H65    C164      1.08538      .   S
    H61    C158      1.08546      .   S
    C121   C199      1.40196      .   S
    C121   C123      1.47143      .   S
    C127   C202      1.40197      .   S
    C127   C129      1.47214  1_655   S
    C133   C202      1.40211      .   S
    C133   C135      1.47259  1_565   S
    C139   C199      1.40196      .   S
    C139   C141      1.47182      .   S
    C104   N213      1.34911      .   S
    C98    N210      1.34899      .   S
    C164   N243      1.34927      .   S
    C158   N240      1.34934      .   S
    H35    C119      1.08623      .   S
    H31    C113      1.08652      .   S
    H59    C155      1.08617      .   S
    H55    C149      1.08619      .   S
    C202   H83       1.09032      .   S
    C199   H82       1.08998      .   S
    C123   C149      1.40114      .   S
    C123   C148      1.40225      .   S
    C129   C155      1.40073      .   S
    C129   C154      1.40143      .   S
    C135   C119      1.40091      .   S
    C135   C118      1.40180      .   S
    C141   C113      1.40091      .   S
    C141   C112      1.40132      .   S
    C155   N239      1.35167      .   S
    C119   N221      1.35206      .   S
    C113   N218      1.35194      .   S
    C149   N236      1.35180      .   S
    N213   N240      1.37381  1_655   S
    N213   Zn7       2.00213      .   S
    N210   N243      1.37355  1_545   S
    N210   Zn6       1.99840      .   S
    N240   Zn11      2.00275      .   S
    N243   Zn10      2.00361      .   S
    C148   H54       1.08603      .   S
    C148   N235      1.35171      .   S
    C154   H58       1.08634  1_455   S
    C154   N238      1.35167      .   S
    C118   H34       1.08645  1_545   S
    C118   N220      1.35171      .   S
    C112   H30       1.08601      .   S
    C112   N217      1.35156      .   S
    N239   N238      1.37540      .   S
    N239   Zn3       2.00261      .   S
    N221   N220      1.37573      .   S
    N221   Zn1       2.00342      .   S
    N236   N235      1.37546      .   S
    N236   Zn3       2.00567      .   S
    N218   N217      1.37546      .   S
    N218   Zn1       2.00364      .   S
    N238   Zn11      2.00625      .   S
    N235   Zn10      2.00630      .   S
    N220   Zn6       2.01226      .   S
    N217   Zn7       2.00693      .   S
    Zn11   N241      2.01223      .   S
    Zn11   N237      2.04818      .   S
    Zn10   N244      2.00682      .   S
    Zn10   N234      2.00196      .   S
    Zn1    N215      2.00578      .   S
    Zn1    N212      2.00258      .   S
    Zn3    N245      2.00369      .   S
    Zn3    N242      2.00348      .   S
    Zn3    Zn0       2.00010      .   S
    Zn7    N214      2.00629      .   S
    Zn7    N216      2.00323      .   S
    Zn6    N211      2.00632      .   S
    Zn6    N219      2.03151      .   S
    N244   N245      1.37550      .   S
    N244   C166      1.35163      .   S
    N241   N242      1.37573      .   S
    N241   C160      1.35160      .   S
    N214   N215      1.37547      .   S
    N214   C106      1.35170      .   S
    N211   N212      1.37536      .   S
    N211   C100      1.35166      .   S
    N245   C167      1.35183      .   S
    N245   Zn0       1.89446      .   S
    N215   C107      1.35177      .   S
    N242   C161      1.35190      .   S
    N242   Zn0       1.88497      .   S
    N212   C101      1.35170      .   S
    H76    C181      1.08251      .   S
    H77    C184      1.09031      .   S
    H66    C166      1.08647  1_545   S
    H62    C160      1.08597      .   S
    H22    C100      1.08601      .   S
    H26    C106      1.08637  1_455   S
    C166   C87       1.40126      .   S
    C160   C93       1.40195      .   S
    C100   C171      1.40143      .   S
    C106   C177      1.40131      .   S
    N216   N237      1.31704  1_655   S
    N216   C110      1.34931      .   S
    N219   N234      1.34273  1_545   S
    N219   C116      1.35397      .   S
    N237   C152      1.35878      .   S
    N234   C146      1.34912      .   S
    C107   C177      1.40093      .   S
    C107   H27       1.08618      .   S
    C167   C87       1.40092      .   S
    C167   H67       1.08615      .   S
    C161   C93       1.40093      .   S
    C161   H63       1.08637      .   S
    C101   C171      1.40073      .   S
    C101   H23       1.08614      .   S
    C87    C85       1.47209  1_565   S
    C93    C91       1.47238      .   S
    C171   C169      1.47189      .   S
    C177   C175      1.47256  1_655   S
    C181   C85       1.40574      .   S
    C181   C175      1.40578      .   S
    C184   C91       1.40220      .   S
    C184   C169      1.40196      .   S
    C116   H33       1.08511      .   S
    C116   C197      1.40536  1_545   S
    C110   H29       1.08542      .   S
    C110   C194      1.40509      .   S
    C152   H57       1.08549      .   S
    C152   C194      1.40521  1_455   S
    C146   H53       1.08549      .   S
    C146   C197      1.40523      .   S
    C85    C84       1.40053      .   S
    C91    C90       1.40070      .   S
    C169   C168      1.40038      .   S
    C175   C174      1.40035      .   S
    C194   C192      1.46509      .   S
    C197   C195      1.46569      .   S
    C90    H16       1.09021      .   S
    C90    C183      1.40594      .   S
    C84    H12       1.09048  1_545   S
    C84    C180      1.40567      .   S
    C168   H68       1.09022      .   S
    C168   C183      1.40564      .   S
    C174   H72       1.09046  1_455   S
    C174   C180      1.40587      .   S
    C183   C185      1.46495      .   S
    C180   C182      1.46455      .   S
    C192   C150      1.40500      .   S
    C192   C108      1.40558      .   S
    C195   C144      1.40569      .   S
    C195   C114      1.40567      .   S
    H56    C150      1.08978  1_455   S
    H52    C144      1.09015      .   S
    H32    C114      1.09048  1_545   S
    H28    C108      1.09015      .   S
    C150   C151      1.40106      .   S
    C144   C145      1.39924      .   S
    C114   C115      1.40068      .   S
    C108   C109      1.40031      .   S
    C185   C170      1.40574      .   S
    C185   C92       1.40470      .   S
    C182   C176      1.40611  1_455   S
    C182   C86       1.40618  1_545   S
    H69    C170      1.08555      .   S
    H73    C176      1.08550      .   S
    H17    C92       1.08518      .   S
    H13    C86       1.08552      .   S
    C151   C193      1.40229      .   S
    C151   C153      1.47276  1_655   S
    C145   C196      1.40269      .   S
    C145   C147      1.47288      .   S
    C115   C196      1.40208      .   S
    C115   C117      1.47238  1_565   S
    C109   C193      1.40204      .   S
    C109   C111      1.47185      .   S
    C170   N246      1.34932      .   S
    C176   N249      1.34913      .   S
    C92    N207      1.35056      .   S
    C86    N204      1.34931      .   S
    H51    C143      1.08621      .   S
    H47    C137      1.08618      .   S
    H43    C131      1.08615      .   S
    H39    C125      1.08612      .   S
    C193   H80       1.08870      .   S
    C196   H81       1.09027      .   S
    C153   C131      1.40075      .   S
    C153   C130      1.40144      .   S
    C147   C125      1.40100      .   S
    C147   C124      1.40138      .   S
    C117   C137      1.40098      .   S
    C117   C136      1.40140      .   S
    C111   C143      1.40105      .   S
    C111   C142      1.40144      .   S
    C131   N227      1.35172      .   S
    C137   N230      1.35193      .   S
    C143   N233      1.35197      .   S
    C125   N224      1.35181      .   S
    N246   N207      1.37381      .   S
    N249   N204      1.37394  1_645   S
    N249   Zn8       2.00383      .   S
    N207   Zn5       2.00375      .   S
    N204   Zn4       2.00482      .   S
    C130   H42       1.08632  1_455   S
    C130   N226      1.35167      .   S
    C124   H38       1.08603      .   S
    C124   N223      1.35171      .   S
    C136   H46       1.08646  1_545   S
    C136   N229      1.35170      .   S
    C142   H50       1.08600      .   S
    C142   N232      1.35155      .   S
    N227   N226      1.37528      .   S
    N233   N232      1.37558      .   S
    N233   Zn2       2.00423      .   S
    N224   N223      1.37533      .   S
    N230   N229      1.37568      .   S
    N230   Zn2       2.00498      .   S
    N226   Zn4       2.00620      .   S
    N223   Zn5       2.00661      .   S
    N229   Zn8       2.00724      .   S
