# CIF file generated by openbabel 2.4.90, see http://openbabel.sf.net
data_I
_chemical_name_common ''
_cell_length_a 13
_cell_length_b 18.343
_cell_length_c 18.751
_cell_angle_alpha 90.178
_cell_angle_beta 96.467
_cell_angle_gamma 90.123
_space_group_name_H-M_alt 'P 1'
_space_group_name_Hall 'P 1'
loop_
    _symmetry_equiv_pos_as_xyz
    x,y,z
loop_
    _atom_site_label
    _atom_site_type_symbol
    _atom_site_fract_x
    _atom_site_fract_y
    _atom_site_fract_z
    _atom_site_occupancy
    Zn0     Zn   0.62614   0.51256   0.28138   1.000
    Zn1     Zn   0.12437   0.01231   0.21910   1.000
    Zn2     Zn   0.62232   0.01240   0.21932   1.000
    Zn3     Zn   0.37325   0.48761   0.71927   1.000
    Zn4     Zn   0.87546   0.48755   0.72142   1.000
    Zn5     Zn   0.37335   0.98737   0.78093   1.000
    Zn6     Zn   0.87555   0.98767   0.78070   1.000
    Zn7     Zn   0.12458   0.51241   0.28080   1.000
    C8      C    0.43408   0.12839   0.74241   1.000
    C9      C    0.93594   0.12983   0.74214   1.000
    C10     C    0.20452   0.65456   0.30244   1.000
    C11     C    0.70501   0.65516   0.30371   1.000
    C12     C    0.06397   0.87018   0.25784   1.000
    C13     C    0.56368   0.87020   0.25830   1.000
    C14     C    0.04443   0.15430   0.19773   1.000
    C15     C    0.54464   0.15461   0.19778   1.000
    C16     C    0.18496   0.37041   0.24187   1.000
    C17     C    0.68679   0.37169   0.24322   1.000
    C18     C    0.29366   0.34544   0.69752   1.000
    C19     C    0.79529   0.34528   0.69773   1.000
    C20     C    0.45339   0.84552   0.80233   1.000
    C21     C    0.95365   0.84559   0.80234   1.000
    C22     C    0.31268   0.62958   0.75760   1.000
    C23     C    0.81426   0.62934   0.75883   1.000
    O24     O    0.17305   0.65606   0.36273   1.000
    O25     O    0.67573   0.65598   0.36400   1.000
    O26     O    0.20874   0.59677   0.26230   1.000
    O27     O    0.70768   0.59789   0.26266   1.000
    O28     O    0.08890   0.88473   0.32225   1.000
    O29     O    0.59100   0.88463   0.32245   1.000
    O30     O    0.05751   0.91683   0.20512   1.000
    O31     O    0.55497   0.91706   0.20573   1.000
    O32     O    0.07576   0.15586   0.13740   1.000
    O33     O    0.57766   0.15591   0.13797   1.000
    O34     O    0.04042   0.09659   0.23770   1.000
    O35     O    0.53842   0.09689   0.23746   1.000
    O36     O    0.15984   0.38465   0.17751   1.000
    O37     O    0.66177   0.38703   0.17907   1.000
    O38     O    0.19156   0.41730   0.29467   1.000
    O39     O    0.69371   0.41792   0.29663   1.000
    O40     O    0.32527   0.34400   0.63727   1.000
    O41     O    0.82672   0.34393   0.63742   1.000
    O42     O    0.28918   0.40321   0.73767   1.000
    O43     O    0.79108   0.40291   0.73809   1.000
    O44     O    0.40915   0.11258   0.67825   1.000
    O45     O    0.91073   0.11540   0.67774   1.000
    O46     O    0.44036   0.08267   0.79591   1.000
    O47     O    0.94265   0.08307   0.79477   1.000
    O48     O    0.42198   0.84407   0.86264   1.000
    O49     O    0.92021   0.84422   0.86201   1.000
    O50     O    0.45751   0.90319   0.76233   1.000
    O51     O    0.95957   0.90328   0.76258   1.000
    O52     O    0.33780   0.61543   0.82205   1.000
    O53     O    0.83991   0.61538   0.82321   1.000
    O54     O    0.30621   0.58262   0.70490   1.000
    O55     O    0.80787   0.58221   0.70622   1.000
    Ts56    Ts   0.58835   0.51562   0.25232   1.000
    Ts57    Ts   0.59288   0.50993   0.30739   1.000
    Ts58    Ts   0.16227   0.01551   0.24824   1.000
    Ts59    Ts   0.15730   0.00968   0.19302   1.000
    Ts60    Ts   0.66039   0.01575   0.24837   1.000
    Ts61    Ts   0.65531   0.00962   0.19327   1.000
    Ts62    Ts   0.41098   0.48454   0.74848   1.000
    Ts63    Ts   0.40648   0.49026   0.69336   1.000
    Ts64    Ts   0.91291   0.48428   0.75045   1.000
    Ts65    Ts   0.90844   0.49022   0.69523   1.000
    Ts66    Ts   0.33555   0.98400   0.75178   1.000
    Ts67    Ts   0.34035   0.98999   0.80699   1.000
    Ts68    Ts   0.83781   0.98437   0.75149   1.000
    Ts69    Ts   0.84242   0.99046   0.80668   1.000
    Ts70    Ts   0.08696   0.51565   0.25160   1.000
    Ts71    Ts   0.09162   0.50970   0.30687   1.000
    Og72    Og   0.44339   0.15469   0.75005   1.000
    Og73    Og   0.94527   0.15599   0.75025   1.000
    Og74    Og   0.21768   0.67781   0.29130   1.000
    Og75    Og   0.71796   0.67850   0.29261   1.000
    Og76    Og   0.05458   0.84401   0.24976   1.000
    Og77    Og   0.55426   0.84403   0.25027   1.000
    Og78    Og   0.03120   0.17750   0.20897   1.000
    Og79    Og   0.53165   0.17795   0.20892   1.000
    Og80    Og   0.19435   0.34429   0.24986   1.000
    Og81    Og   0.69590   0.34545   0.25087   1.000
    Og82    Og   0.28049   0.32218   0.70861   1.000
    Og83    Og   0.78209   0.32200   0.70880   1.000
    Og84    Og   0.46659   0.82228   0.79113   1.000
    Og85    Og   0.96692   0.82232   0.79128   1.000
    Og86    Og   0.30331   0.65568   0.74958   1.000
    Og87    Og   0.80461   0.65537   0.75073   1.000
loop_
    _geom_bond_atom_site_label_1
    _geom_bond_atom_site_label_2
    _geom_bond_distance
    _geom_bond_site_symmetry_2
    _ccdc_geom_bond_type
    O32    C14       1.24514      .   S
    O33    C15       1.24547      .   S
    O36    C16       1.24295      .   S
    O37    C17       1.24347      .   S
    C14    O34       1.30329      .   S
    C15    O35       1.30362      .   S
    O30    Zn1       1.95724  1_565   S
    O30    C12       1.30516      .   S
    O31    Zn2       1.95726  1_565   S
    O31    C13       1.30523      .   S
    Zn1    O34       1.94729      .   S
    Zn2    O35       1.94788      .   S
    C16    O38       1.30485      .   S
    C17    O39       1.30543      .   S
    C12    O28       1.24273      .   S
    C13    O29       1.24277      .   S
    O26    Zn7       1.94751      .   S
    O26    C10       1.30304      .   S
    O27    Zn0       1.94340      .   S
    O27    C11       1.30325      .   S
    Zn7    O38       1.95658      .   S
    Zn0    O39       1.95455      .   S
    C10    O24       1.24508      .   S
    C11    O25       1.23291      .   S
    O40    C18       1.24513      .   S
    O41    C19       1.24512      .   S
    O45    C9        1.24266      .   S
    O44    C8        1.24341      .   S
    C18    O42       1.30316      .   S
    C19    O43       1.30300      .   S
    O54    Zn3       1.95609      .   S
    O54    C22       1.30429      .   S
    O55    Zn4       1.95492      .   S
    O55    C23       1.30510      .   S
    Zn3    O42       1.94721      .   S
    Zn4    O43       1.94534      .   S
    C9     O47       1.30520      .   S
    C8     O46       1.30513      .   S
    C22    O52       1.24418      .   S
    C23    O53       1.24325      .   S
    O50    Zn5       1.94759      .   S
    O50    C20       1.30317      .   S
    O51    Zn6       1.94735      .   S
    O51    C21       1.30354      .   S
    Zn6    O47       1.95734  1_565   S
    Zn5    O46       1.95671  1_565   S
    C20    O48       1.24520      .   S
    C21    O49       1.24545      .   S
    Zn0    Ts56      0.69381      .   S
    Zn0    Ts57      0.68897      .   S
    Zn1    Ts58      0.69550      .   S
    Zn1    Ts59      0.68696      .   S
    Zn2    Ts60      0.69590      .   S
    Zn2    Ts61      0.68713      .   S
    Zn3    Ts62      0.69534      .   S
    Zn3    Ts63      0.68729      .   S
    Zn4    Ts64      0.69111      .   S
    Zn4    Ts65      0.68914      .   S
    Zn5    Ts66      0.69510      .   S
    Zn5    Ts67      0.68717      .   S
    Zn6    Ts68      0.69527      .   S
    Zn6    Ts69      0.68745      .   S
    Zn7    Ts70      0.69466      .   S
    Zn7    Ts71      0.68724      .   S
    C8     Og72      0.51315      .   S
    C9     Og73      0.51316      .   S
    C10    Og74      0.51285      .   S
    C11    Og75      0.51290      .   S
    C12    Og76      0.51320      .   S
    C13    Og77      0.51307      .   S
    C14    Og78      0.51282      .   S
    C15    Og79      0.51282      .   S
    C16    Og80      0.51319      .   S
    C17    Og81      0.51303      .   S
    C18    Og82      0.51270      .   S
    C19    Og83      0.51295      .   S
    C20    Og84      0.51289      .   S
    C21    Og85      0.51271      .   S
    C22    Og86      0.51305      .   S
    C23    Og87      0.51307      .   S
