# CIF file generated by openbabel 2.4.90, see http://openbabel.sf.net
data_I
_chemical_name_common ''
_cell_length_a 13
_cell_length_b 18.343
_cell_length_c 18.751
_cell_angle_alpha 90.178
_cell_angle_beta 96.467
_cell_angle_gamma 90.123
_space_group_name_H-M_alt 'P 1'
_space_group_name_Hall 'P 1'
loop_
    _symmetry_equiv_pos_as_xyz
    x,y,z
loop_
    _atom_site_label
    _atom_site_type_symbol
    _atom_site_fract_x
    _atom_site_fract_y
    _atom_site_fract_z
    _atom_site_occupancy
    N0      N    0.24982   0.50008   0.50067   1.000
    N1      N    0.89961   0.75242   0.65922   1.000
    N2      N    0.99860   0.99989   0.49979   1.000
    N3      N    0.39942   0.75287   0.65861   1.000
    N4      N    0.84872   0.25321   0.84065   1.000
    N5      N    0.34820   0.25317   0.84015   1.000
    N6      N    0.50025   0.99963   0.49976   1.000
    N7      N    0.25023   0.49977   0.00137   1.000
    N8      N    0.59968   0.24746   0.34118   1.000
    N9      N    0.99802   0.99949   0.00036   1.000
    N10     N    0.49956   0.00035   0.99963   1.000
    N11     N    0.74926   0.50033   0.99995   1.000
    N12     N    0.74928   0.49994   0.50063   1.000
    N13     N    0.15081   0.74653   0.15882   1.000
    N14     N    0.09897   0.24711   0.34127   1.000
    N15     N    0.65108   0.74669   0.15991   1.000
    Zr16    Zr   0.17818   0.51316   0.27462   1.000
    O17     O    0.04520   0.50865   0.34244   1.000
    O18     O    0.04344   0.51098   0.19655   1.000
    O19     O    0.16359   0.40117   0.28609   1.000
    O20     O    0.18285   0.61557   0.24845   1.000
    Zr21    Zr   0.31972   0.48684   0.72518   1.000
    O22     O    0.33437   0.59882   0.71363   1.000
    O23     O    0.31539   0.38435   0.75117   1.000
    O24     O    0.45295   0.49130   0.65785   1.000
    O25     O    0.45464   0.48925   0.80335   1.000
    Zr26    Zr   0.82151   0.48666   0.72613   1.000
    O27     O    0.81681   0.38422   0.75181   1.000
    O28     O    0.83561   0.59853   0.71454   1.000
    O29     O    0.95444   0.49124   0.65877   1.000
    O30     O    0.95622   0.48893   0.80465   1.000
    Zr31    Zr   0.42712   0.98626   0.77497   1.000
    O32     O    0.29237   0.98868   0.69673   1.000
    O33     O    0.29403   0.99082   0.84258   1.000
    O34     O    0.41262   0.09838   0.78599   1.000
    O35     O    0.43171   0.88401   0.74852   1.000
    Zr36    Zr   0.92833   0.98701   0.77461   1.000
    O37     O    0.91383   0.09908   0.78605   1.000
    O38     O    0.93246   0.88428   0.74855   1.000
    O39     O    0.79396   0.98909   0.69647   1.000
    O40     O    0.79552   0.99156   0.84213   1.000
    Zr41    Zr   0.57038   0.01310   0.22557   1.000
    O42     O    0.58535   0.90096   0.21433   1.000
    O43     O    0.56640   0.11582   0.25170   1.000
    O44     O    0.70470   0.01088   0.30346   1.000
    O45     O    0.70265   0.00848   0.15794   1.000
    Zr46    Zr   0.07077   0.01297   0.22531   1.000
    O47     O    0.08556   0.90085   0.21379   1.000
    O48     O    0.06627   0.11554   0.25162   1.000
    O49     O    0.20575   0.01067   0.30329   1.000
    O50     O    0.20371   0.00866   0.15756   1.000
    Zr51    Zr   0.67955   0.51403   0.27581   1.000
    O52     O    0.66481   0.40196   0.28687   1.000
    O53     O    0.54629   0.50919   0.34317   1.000
    O54     O    0.54470   0.51125   0.19770   1.000
    O55     O    0.68365   0.61623   0.24965   1.000
loop_
    _geom_bond_atom_site_label_1
    _geom_bond_atom_site_label_2
    _geom_bond_distance
    _geom_bond_site_symmetry_2
    _ccdc_geom_bond_type
    Zr16   O17       2.26016      .   S
    N12    O17       5.11787  1_655   S
    Zr16   O18       2.15277      .   S
    N11    O18       5.00695  1_656   S
    Zr16   O19       2.07674      .   S
    N14    O19       3.15693      .   S
    Zr16   O20       1.94554      .   S
    N13    O20       2.93938      .   S
    Zr21   O22       2.07668      .   S
    N3     O22       3.15736      .   S
    Zr21   O23       1.94588      .   S
    N5     O23       2.93686      .   S
    Zr21   O24       2.25686      .   S
    N12    O24       5.11024      .   S
    Zr21   O25       2.15562      .   S
    N11    O25       5.01124      .   S
    Zr26   O27       1.94369      .   S
    N4     O27       2.93180      .   S
    Zr26   O28       2.07414      .   S
    N1     O28       3.15259      .   S
    Zr26   O29       2.25404      .   S
    N0     O29       5.11110  1_455   S
    Zr26   O30       2.15750      .   S
    N7     O30       5.00710  1_454   S
    Zr31   O32       2.15509      .   S
    N2     O32       5.00960  1_655   S
    Zr31   O33       2.25869      .   S
    N9     O33       5.11370  1_654   S
    Zr31   O34       2.07750  1_565   S
    N5     O34       3.15881      .   S
    Zr31   O35       1.94123      .   S
    N3     O35       2.93537      .   S
    Zr36   O37       2.07732  1_565   S
    N4     O37       3.15374      .   S
    Zr36   O38       1.94761      .   S
    N1     O38       2.94061      .   S
    Zr36   O39       2.15028      .   S
    N6     O39       5.00564      .   S
    Zr36   O40       2.25459      .   S
    N10    O40       5.10986  1_545   S
    Zr41   O42       2.07891  1_545   S
    N15    O42       3.15723      .   S
    Zr41   O43       1.94758      .   S
    N8     O43       2.93928      .   S
    Zr41   O44       2.14697      .   S
    N2     O44       5.00310  1_565   S
    Zr41   O45       2.25014      .   S
    N9     O45       5.10471  1_565   S
    Zr46   O47       2.07888  1_545   S
    N13    O47       3.15974      .   S
    Zr46   O48       1.94618      .   S
    N14    O48       2.93950      .   S
    Zr46   O49       2.15458      .   S
    N6     O49       5.01005  1_565   S
    Zr46   O50       2.25871      .   S
    N10    O50       5.11355  1_556   S
    Zr51   O52       2.07740      .   S
    N8     O52       3.16029      .   S
    Zr51   O53       2.25769      .   S
    N0     O53       5.11552      .   S
    Zr51   O54       2.15451      .   S
    N7     O54       5.00671      .   S
    Zr51   O55       1.94137      .   S
    N15    O55       2.93357      .   S
