# CIF file generated by openbabel 2.4.90, see http://openbabel.sf.net
data_I
_chemical_name_common ''
_cell_length_a 13
_cell_length_b 18.343
_cell_length_c 18.751
_cell_angle_alpha 90.178
_cell_angle_beta 96.467
_cell_angle_gamma 90.123
_space_group_name_H-M_alt 'P 1'
_space_group_name_Hall 'P 1'
loop_
    _symmetry_equiv_pos_as_xyz
    x,y,z
loop_
    _atom_site_label
    _atom_site_type_symbol
    _atom_site_fract_x
    _atom_site_fract_y
    _atom_site_fract_z
    _atom_site_occupancy
    C0      C    0.12458   0.51241   0.28080   1.000
    C1      C    0.62614   0.51256   0.28138   1.000
    C2      C    0.12437   0.01231   0.21910   1.000
    C3      C    0.62232   0.01240   0.21932   1.000
    C4      C    0.37325   0.48761   0.71927   1.000
    C5      C    0.87546   0.48755   0.72142   1.000
    C6      C    0.37335   0.98737   0.78093   1.000
    C7      C    0.87555   0.98767   0.78070   1.000
    C8      C    0.32861   0.71904   0.27094   1.000
    C9      C    0.82858   0.72039   0.27268   1.000
    C10     C    0.22807   0.77057   0.30331   1.000
    C11     C    0.72721   0.77134   0.30457   1.000
    C12     C    0.32942   0.68786   0.14862   1.000
    C13     C    0.83038   0.68874   0.15034   1.000
    C14     C    0.25626   0.70096   0.02128   1.000
    C15     C    0.75763   0.70102   0.02285   1.000
    C16     C    0.07942   0.75465   0.99189   1.000
    C17     C    0.58037   0.75383   0.99283   1.000
    C18     C    0.48076   0.79417   0.09120   1.000
    C19     C    0.98068   0.79503   0.09071   1.000
    C20     C    0.45297   0.79190   0.21298   1.000
    C21     C    0.95325   0.79194   0.21261   1.000
    C22     C    0.04546   0.75671   0.28121   1.000
    C23     C    0.54492   0.75680   0.28186   1.000
    C24     C    0.40914   0.45651   0.24225   1.000
    C25     C    0.90755   0.45713   0.24102   1.000
    C26     C    0.27745   0.45225   0.13812   1.000
    C27     C    0.77641   0.45287   0.13670   1.000
    C28     C    0.47887   0.59039   0.02665   1.000
    C29     C    0.97864   0.59061   0.02552   1.000
    C30     C    0.10285   0.58938   0.13711   1.000
    C31     C    0.60352   0.58925   0.13809   1.000
    C32     C    0.31820   0.55127   0.96142   1.000
    C33     C    0.81785   0.55170   0.95993   1.000
    C34     C    0.47816   0.61199   0.34576   1.000
    C35     C    0.97874   0.61197   0.34657   1.000
    C36     C    0.33475   0.60109   0.42175   1.000
    C37     C    0.83624   0.60119   0.42335   1.000
    C38     C    0.42820   0.37711   0.46183   1.000
    C39     C    0.92783   0.37653   0.46136   1.000
    C40     C    0.06393   0.39596   0.37949   1.000
    C41     C    0.56540   0.39667   0.38080   1.000
    C42     C    0.29389   0.42566   0.52690   1.000
    C43     C    0.79456   0.42545   0.52764   1.000
    C44     C    0.42107   0.21934   0.22958   1.000
    C45     C    0.92024   0.21803   0.22997   1.000
    C46     C    0.01996   0.27013   0.19712   1.000
    C47     C    0.52171   0.27065   0.19689   1.000
    C48     C    0.42118   0.18833   0.35181   1.000
    C49     C    0.92055   0.18810   0.35239   1.000
    C50     C    0.49526   0.20187   0.47900   1.000
    C51     C    0.99498   0.20226   0.47946   1.000
    C52     C    0.17206   0.25659   0.50798   1.000
    C53     C    0.67236   0.25611   0.50801   1.000
    C54     C    0.26973   0.29650   0.40856   1.000
    C55     C    0.77028   0.29656   0.40895   1.000
    C56     C    0.29587   0.29259   0.28640   1.000
    C57     C    0.79686   0.29288   0.28671   1.000
    C58     C    0.20288   0.25687   0.21819   1.000
    C59     C    0.70347   0.25834   0.21813   1.000
    C60     C    0.34151   0.95691   0.25790   1.000
    C61     C    0.83961   0.95711   0.25800   1.000
    C62     C    0.47280   0.95216   0.36227   1.000
    C63     C    0.97122   0.95254   0.36208   1.000
    C64     C    0.27212   0.08985   0.47483   1.000
    C65     C    0.77123   0.09085   0.47460   1.000
    C66     C    0.14774   0.08913   0.36332   1.000
    C67     C    0.64657   0.08998   0.36328   1.000
    C68     C    0.43204   0.05053   0.53999   1.000
    C69     C    0.93096   0.05131   0.53976   1.000
    C70     C    0.27009   0.11227   0.15381   1.000
    C71     C    0.76862   0.11181   0.15411   1.000
    C72     C    0.41301   0.10175   0.07731   1.000
    C73     C    0.91210   0.10078   0.07810   1.000
    C74     C    0.32179   0.87664   0.03850   1.000
    C75     C    0.81982   0.87584   0.03931   1.000
    C76     C    0.18508   0.89588   0.12002   1.000
    C77     C    0.68276   0.89558   0.12039   1.000
    C78     C    0.45499   0.92580   0.97263   1.000
    C79     C    0.95370   0.92467   0.97366   1.000
    C80     C    0.16960   0.28107   0.72931   1.000
    C81     C    0.67105   0.28071   0.72895   1.000
    C82     C    0.26957   0.22945   0.69635   1.000
    C83     C    0.77170   0.22924   0.69664   1.000
    C84     C    0.17017   0.31232   0.85169   1.000
    C85     C    0.66987   0.31156   0.85134   1.000
    C86     C    0.24450   0.29920   0.97878   1.000
    C87     C    0.74290   0.29844   0.97800   1.000
    C88     C    0.42129   0.24518   0.00000   1.000
    C89     C    0.91989   0.24497   0.00000   1.000
    C90     C    0.01892   0.20492   0.90939   1.000
    C91     C    0.51870   0.20437   0.90802   1.000
    C92     C    0.04648   0.20809   0.78753   1.000
    C93     C    0.54483   0.20747   0.78564   1.000
    C94     C    0.45137   0.24160   0.71729   1.000
    C95     C    0.95430   0.24333   0.71891   1.000
    C96     C    0.09142   0.54307   0.76050   1.000
    C97     C    0.58985   0.54396   0.75897   1.000
    C98     C    0.22288   0.54749   0.86465   1.000
    C99     C    0.72153   0.54840   0.86308   1.000
    C100    C    0.02163   0.40906   0.97600   1.000
    C101    C    0.52079   0.40962   0.97441   1.000
    C102    C    0.39609   0.41066   0.86308   1.000
    C103    C    0.89704   0.41015   0.86457   1.000
    C104    C    0.18207   0.44831   0.04142   1.000
    C105    C    0.68120   0.44899   0.03976   1.000
    C106    C    0.02158   0.38791   0.65522   1.000
    C107    C    0.52090   0.38820   0.65519   1.000
    C108    C    0.16344   0.39869   0.57793   1.000
    C109    C    0.66457   0.39906   0.57937   1.000
    C110    C    0.07163   0.62334   0.54020   1.000
    C111    C    0.57130   0.62306   0.53916   1.000
    C112    C    0.43400   0.60360   0.62011   1.000
    C113    C    0.93589   0.60381   0.62229   1.000
    C114    C    0.20480   0.57455   0.47375   1.000
    C115    C    0.70581   0.57439   0.47423   1.000
    C116    C    0.07803   0.78148   0.77080   1.000
    C117    C    0.57758   0.78144   0.77053   1.000
    C118    C    0.47724   0.72963   0.80296   1.000
    C119    C    0.97785   0.72971   0.80356   1.000
    C120    C    0.07813   0.81145   0.64835   1.000
    C121    C    0.57821   0.81167   0.64822   1.000
    C122    C    0.00408   0.79722   0.52121   1.000
    C123    C    0.50457   0.79788   0.52095   1.000
    C124    C    0.32740   0.74384   0.49174   1.000
    C125    C    0.82701   0.74287   0.49246   1.000
    C126    C    0.22893   0.70383   0.59069   1.000
    C127    C    0.72904   0.70303   0.59172   1.000
    C128    C    0.20196   0.70728   0.71263   1.000
    C129    C    0.70266   0.70648   0.71370   1.000
    C130    C    0.29436   0.74313   0.78116   1.000
    C131    C    0.79505   0.74286   0.78204   1.000
    C132    C    0.15595   0.04203   0.74169   1.000
    C133    C    0.65848   0.04262   0.74134   1.000
    C134    C    0.02545   0.04686   0.63711   1.000
    C135    C    0.52724   0.04670   0.63711   1.000
    C136    C    0.22716   0.90939   0.52509   1.000
    C137    C    0.72889   0.90938   0.52491   1.000
    C138    C    0.35090   0.91022   0.63693   1.000
    C139    C    0.85309   0.91063   0.63649   1.000
    C140    C    0.06711   0.94858   0.45940   1.000
    C141    C    0.56863   0.94829   0.45947   1.000
    C142    C    0.22743   0.88734   0.84633   1.000
    C143    C    0.72877   0.88830   0.84558   1.000
    C144    C    0.08463   0.89795   0.92290   1.000
    C145    C    0.58540   0.89921   0.92165   1.000
    C146    C    0.17594   0.12307   0.96151   1.000
    C147    C    0.67781   0.12406   0.96082   1.000
    C148    C    0.31258   0.10372   0.87994   1.000
    C149    C    0.81475   0.10447   0.87960   1.000
    C150    C    0.04268   0.07404   0.02739   1.000
    C151    C    0.54390   0.07517   0.02640   1.000
    C152    C    0.20452   0.65456   0.30244   1.000
    C153    C    0.70501   0.65516   0.30371   1.000
    C154    C    0.24399   0.72431   0.26903   1.000
    C155    C    0.74384   0.72518   0.27040   1.000
    C156    C    0.19800   0.73491   0.19203   1.000
    C157    C    0.69832   0.73542   0.19327   1.000
    C158    C    0.25305   0.71217   0.13572   1.000
    C159    C    0.75385   0.71271   0.13719   1.000
    C160    C    0.21184   0.71912   0.06403   1.000
    C161    C    0.71285   0.71917   0.06541   1.000
    C162    C    0.11324   0.74906   0.04756   1.000
    C163    C    0.61401   0.74862   0.04858   1.000
    C164    C    0.05761   0.77156   0.10315   1.000
    C165    C    0.55789   0.77108   0.10393   1.000
    C166    C    0.09817   0.76491   0.17540   1.000
    C167    C    0.59827   0.76493   0.17626   1.000
    C168    C    0.03581   0.79167   0.23361   1.000
    C169    C    0.53542   0.79170   0.23421   1.000
    C170    C    0.06397   0.87018   0.25784   1.000
    C171    C    0.56368   0.87020   0.25830   1.000
    C172    C    0.42232   0.48498   0.19318   1.000
    C173    C    0.92109   0.48550   0.19196   1.000
    C174    C    0.34857   0.48286   0.13404   1.000
    C175    C    0.84758   0.48339   0.13266   1.000
    C176    C    0.36715   0.52012   0.07119   1.000
    C177    C    0.86644   0.52053   0.06980   1.000
    C178    C    0.46057   0.55959   0.07326   1.000
    C179    C    0.96001   0.55987   0.07209   1.000
    C180    C    0.02993   0.55942   0.13382   1.000
    C181    C    0.53070   0.55918   0.13480   1.000
    C182    C    0.29510   0.51887   0.00581   1.000
    C183    C    0.79450   0.51936   0.00429   1.000
    C184    C    0.46271   0.56062   0.37153   1.000
    C185    C    0.96292   0.56046   0.37197   1.000
    C186    C    0.38371   0.55416   0.41468   1.000
    C187    C    0.88454   0.55407   0.41563   1.000
    C188    C    0.36786   0.48731   0.44868   1.000
    C189    C    0.86841   0.48706   0.44924   1.000
    C190    C    0.43538   0.42993   0.43638   1.000
    C191    C    0.93517   0.42946   0.43618   1.000
    C192    C    0.51227   0.44017   0.39169   1.000
    C193    C    0.00000   0.43962   0.39098   1.000
    C194    C    0.28781   0.47622   0.49600   1.000
    C195    C    0.78858   0.47603   0.49675   1.000
    C196    C    0.04443   0.15430   0.19773   1.000
    C197    C    0.54464   0.15461   0.19778   1.000
    C198    C    0.00476   0.22391   0.23144   1.000
    C199    C    0.50569   0.22461   0.23119   1.000
    C200    C    0.05150   0.23512   0.30828   1.000
    C201    C    0.55227   0.23564   0.30810   1.000
    C202    C    0.49764   0.21286   0.36455   1.000
    C203    C    0.99703   0.21266   0.36491   1.000
    C204    C    0.03896   0.22020   0.43645   1.000
    C205    C    0.53939   0.22006   0.43616   1.000
    C206    C    0.13768   0.25050   0.45244   1.000
    C207    C    0.63810   0.25029   0.45241   1.000
    C208    C    0.19273   0.27271   0.39652   1.000
    C209    C    0.69329   0.27282   0.39668   1.000
    C210    C    0.15143   0.26549   0.32442   1.000
    C211    C    0.65218   0.26597   0.32450   1.000
    C212    C    0.21313   0.29207   0.26585   1.000
    C213    C    0.71411   0.29296   0.26618   1.000
    C214    C    0.18496   0.37041   0.24187   1.000
    C215    C    0.68679   0.37169   0.24322   1.000
    C216    C    0.32831   0.98516   0.30731   1.000
    C217    C    0.82667   0.98559   0.30727   1.000
    C218    C    0.40191   0.98278   0.36655   1.000
    C219    C    0.90045   0.98329   0.36641   1.000
    C220    C    0.38352   0.01975   0.42980   1.000
    C221    C    0.88231   0.02045   0.42962   1.000
    C222    C    0.29035   0.05924   0.42794   1.000
    C223    C    0.78927   0.06008   0.42775   1.000
    C224    C    0.22035   0.05906   0.36626   1.000
    C225    C    0.71910   0.05982   0.36616   1.000
    C226    C    0.45537   0.01836   0.49534   1.000
    C227    C    0.95416   0.01901   0.49515   1.000
    C228    C    0.28605   0.06076   0.12828   1.000
    C229    C    0.78455   0.06021   0.12874   1.000
    C230    C    0.36471   0.05448   0.08483   1.000
    C231    C    0.86348   0.05365   0.08555   1.000
    C232    C    0.38101   0.98744   0.05106   1.000
    C233    C    0.87960   0.98652   0.05190   1.000
    C234    C    0.31421   0.92964   0.06380   1.000
    C235    C    0.81241   0.92891   0.06450   1.000
    C236    C    0.23765   0.93969   0.10878   1.000
    C237    C    0.73561   0.93924   0.10924   1.000
    C238    C    0.46099   0.97650   0.00365   1.000
    C239    C    0.95972   0.97538   0.00466   1.000
    C240    C    0.29366   0.34544   0.69752   1.000
    C241    C    0.79529   0.34528   0.69773   1.000
    C242    C    0.25415   0.27566   0.73080   1.000
    C243    C    0.75570   0.27544   0.73095   1.000
    C244    C    0.30082   0.26489   0.80765   1.000
    C245    C    0.80152   0.26479   0.80798   1.000
    C246    C    0.24650   0.28785   0.86425   1.000
    C247    C    0.74630   0.28735   0.86426   1.000
    C248    C    0.28837   0.28089   0.93580   1.000
    C249    C    0.78745   0.28040   0.93597   1.000
    C250    C    0.38695   0.25077   0.95182   1.000
    C251    C    0.88612   0.25060   0.95250   1.000
    C252    C    0.44183   0.22804   0.89593   1.000
    C253    C    0.94193   0.22829   0.89690   1.000
    C254    C    0.40055   0.23462   0.82382   1.000
    C255    C    0.90143   0.23493   0.82466   1.000
    C256    C    0.46200   0.20730   0.76532   1.000
    C257    C    0.96395   0.20832   0.76648   1.000
    C258    C    0.43408   0.12839   0.74241   1.000
    C259    C    0.93594   0.12983   0.74214   1.000
    C260    C    0.07823   0.51459   0.80960   1.000
    C261    C    0.57678   0.51538   0.80801   1.000
    C262    C    0.15189   0.51676   0.86878   1.000
    C263    C    0.65058   0.51759   0.86715   1.000
    C264    C    0.13326   0.47944   0.93161   1.000
    C265    C    0.63229   0.48017   0.92999   1.000
    C266    C    0.03991   0.43987   0.92945   1.000
    C267    C    0.53898   0.44053   0.92784   1.000
    C268    C    0.46878   0.44088   0.86625   1.000
    C269    C    0.96984   0.44026   0.86783   1.000
    C270    C    0.20521   0.48070   0.99703   1.000
    C271    C    0.70443   0.48137   0.99530   1.000
    C272    C    0.03714   0.43941   0.62973   1.000
    C273    C    0.53655   0.43957   0.62948   1.000
    C274    C    0.11524   0.44582   0.58583   1.000
    C275    C    0.61563   0.44601   0.58640   1.000
    C276    C    0.13122   0.51283   0.55220   1.000
    C277    C    0.63158   0.51284   0.55243   1.000
    C278    C    0.06446   0.57039   0.56539   1.000
    C279    C    0.56407   0.57026   0.56464   1.000
    C280    C    0.98842   0.56019   0.61075   1.000
    C281    C    0.48712   0.56008   0.60920   1.000
    C282    C    0.21090   0.52394   0.50458   1.000
    C283    C    0.71174   0.52385   0.50519   1.000
    C284    C    0.45339   0.84552   0.80233   1.000
    C285    C    0.95365   0.84559   0.80234   1.000
    C286    C    0.49298   0.77581   0.76874   1.000
    C287    C    0.99347   0.77577   0.76917   1.000
    C288    C    0.44676   0.76472   0.69177   1.000
    C289    C    0.94703   0.76442   0.69227   1.000
    C290    C    0.00168   0.78687   0.63573   1.000
    C291    C    0.50170   0.78723   0.63540   1.000
    C292    C    0.46022   0.77988   0.56374   1.000
    C293    C    0.95996   0.77928   0.56415   1.000
    C294    C    0.36147   0.74975   0.54737   1.000
    C295    C    0.86125   0.74899   0.54803   1.000
    C296    C    0.30597   0.72746   0.60304   1.000
    C297    C    0.80604   0.72679   0.60388   1.000
    C298    C    0.34681   0.73448   0.67525   1.000
    C299    C    0.84712   0.73405   0.67600   1.000
    C300    C    0.28457   0.70788   0.73353   1.000
    C301    C    0.78532   0.70744   0.73453   1.000
    C302    C    0.31268   0.62958   0.75760   1.000
    C303    C    0.81426   0.62934   0.75883   1.000
    C304    C    0.16958   0.01385   0.69240   1.000
    C305    C    0.67188   0.01427   0.69210   1.000
    C306    C    0.09638   0.01625   0.63294   1.000
    C307    C    0.59832   0.01631   0.63283   1.000
    C308    C    0.11529   0.97938   0.56975   1.000
    C309    C    0.61702   0.97928   0.56967   1.000
    C310    C    0.20855   0.93997   0.57190   1.000
    C311    C    0.71042   0.94005   0.57170   1.000
    C312    C    0.27818   0.94018   0.63370   1.000
    C313    C    0.78034   0.94053   0.63344   1.000
    C314    C    0.04378   0.98085   0.50403   1.000
    C315    C    0.54523   0.98048   0.50409   1.000
    C316    C    0.21151   0.93888   0.87183   1.000
    C317    C    0.71289   0.93987   0.87104   1.000
    C318    C    0.13292   0.94520   0.91534   1.000
    C319    C    0.63403   0.94635   0.91430   1.000
    C320    C    0.11666   0.01230   0.94903   1.000
    C321    C    0.61796   0.01343   0.94807   1.000
    C322    C    0.18347   0.07006   0.93624   1.000
    C323    C    0.68516   0.07105   0.93552   1.000
    C324    C    0.25997   0.05995   0.89120   1.000
    C325    C    0.76189   0.06080   0.89070   1.000
    C326    C    0.03667   0.02332   0.99641   1.000
    C327    C    0.53789   0.02448   0.99538   1.000
    C328    C    0.01171   0.52213   0.19320   1.000
    C329    C    0.51279   0.52175   0.19420   1.000
    C330    C    0.02570   0.50428   0.35901   1.000
    C331    C    0.52638   0.50468   0.35942   1.000
    C332    C    0.23807   0.02189   0.30651   1.000
    C333    C    0.73651   0.02244   0.30647   1.000
    C334    C    0.22317   0.00440   0.14086   1.000
    C335    C    0.72128   0.00404   0.14118   1.000
    C336    C    0.48645   0.47840   0.80689   1.000
    C337    C    0.98781   0.47774   0.80852   1.000
    C338    C    0.47293   0.49556   0.64153   1.000
    C339    C    0.97441   0.49556   0.64285   1.000
    C340    C    0.25996   0.97725   0.69348   1.000
    C341    C    0.76234   0.97777   0.69308   1.000
    C342    C    0.27435   0.99521   0.85910   1.000
    C343    C    0.77615   0.99605   0.85863   1.000
    C344    C    0.17305   0.65606   0.36273   1.000
    C345    C    0.67573   0.65598   0.36400   1.000
    C346    C    0.20874   0.59677   0.26230   1.000
    C347    C    0.70768   0.59789   0.26266   1.000
    C348    C    0.08890   0.88473   0.32225   1.000
    C349    C    0.59100   0.88463   0.32245   1.000
    C350    C    0.05751   0.91683   0.20512   1.000
    C351    C    0.55497   0.91706   0.20573   1.000
    C352    C    0.07576   0.15586   0.13740   1.000
    C353    C    0.57766   0.15591   0.13797   1.000
    C354    C    0.04042   0.09659   0.23770   1.000
    C355    C    0.53842   0.09689   0.23746   1.000
    C356    C    0.15984   0.38465   0.17751   1.000
    C357    C    0.66177   0.38703   0.17907   1.000
    C358    C    0.19156   0.41730   0.29467   1.000
    C359    C    0.69371   0.41792   0.29663   1.000
    C360    C    0.32527   0.34400   0.63727   1.000
    C361    C    0.82672   0.34393   0.63742   1.000
    C362    C    0.28918   0.40321   0.73767   1.000
    C363    C    0.79108   0.40291   0.73809   1.000
    C364    C    0.40915   0.11258   0.67825   1.000
    C365    C    0.91073   0.11540   0.67774   1.000
    C366    C    0.44036   0.08267   0.79591   1.000
    C367    C    0.94265   0.08307   0.79477   1.000
    C368    C    0.42198   0.84407   0.86264   1.000
    C369    C    0.92021   0.84422   0.86201   1.000
    C370    C    0.45751   0.90319   0.76233   1.000
    C371    C    0.95957   0.90328   0.76258   1.000
    C372    C    0.33780   0.61543   0.82205   1.000
    C373    C    0.83991   0.61538   0.82321   1.000
    C374    C    0.30621   0.58262   0.70490   1.000
    C375    C    0.80787   0.58221   0.70622   1.000
    O376    O    0.40412   0.24798   0.97591   1.000
    O377    O    0.90301   0.24778   0.97625   1.000
    O378    O    0.42100   0.98197   0.02735   1.000
    O379    O    0.45799   0.95115   0.98814   1.000
    O380    O    0.49944   0.00049   0.99951   1.000
    O381    O    0.83047   0.51995   0.03704   1.000
    O382    O    0.80618   0.53553   0.98211   1.000
    O383    O    0.74947   0.50036   0.99979   1.000
    O384    O    0.91966   0.98095   0.02828   1.000
    O385    O    0.95671   0.95003   0.98916   1.000
    O386    O    0.99820   0.99935   0.00054   1.000
    O387    O    0.33113   0.51949   0.03850   1.000
    O388    O    0.30665   0.53507   0.98362   1.000
    O389    O    0.25015   0.49979   0.00142   1.000
    O390    O    0.23405   0.71004   0.04265   1.000
    O391    O    0.73524   0.71010   0.04413   1.000
    O392    O    0.96932   0.57524   0.04880   1.000
    O393    O    0.54089   0.04983   0.01089   1.000
    O394    O    0.46972   0.57499   0.04995   1.000
    O395    O    0.03968   0.04868   0.01190   1.000
    O396    O    0.31800   0.90314   0.05115   1.000
    O397    O    0.81611   0.90238   0.05190   1.000
    O398    O    0.69281   0.46518   0.01753   1.000
    O399    O    0.19364   0.46451   0.01922   1.000
    O400    O    0.16254   0.73409   0.05580   1.000
    O401    O    0.08543   0.76031   0.07535   1.000
    O402    O    0.09633   0.75185   0.01973   1.000
    O403    O    0.66343   0.73389   0.05699   1.000
    O404    O    0.58595   0.75985   0.07625   1.000
    O405    O    0.59719   0.75122   0.02070   1.000
    O406    O    0.34761   0.95854   0.05743   1.000
    O407    O    0.37286   0.02096   0.06794   1.000
    O408    O    0.84600   0.95771   0.05820   1.000
    O409    O    0.87154   0.02008   0.06872   1.000
    O410    O    0.27593   0.93466   0.08629   1.000
    O411    O    0.23245   0.71565   0.09987   1.000
    O412    O    0.77401   0.93407   0.08687   1.000
    O413    O    0.73335   0.71594   0.10130   1.000
    O414    O    0.91322   0.54020   0.07094   1.000
    O415    O    0.85701   0.50196   0.10123   1.000
    O416    O    0.41386   0.53985   0.07222   1.000
    O417    O    0.35786   0.50149   0.10261   1.000
    O418    O    0.99497   0.55965   0.10296   1.000
    O419    O    0.49564   0.55938   0.10403   1.000
    O420    O    0.38886   0.07812   0.08107   1.000
    O421    O    0.88779   0.07722   0.08182   1.000
    O422    O    0.32538   0.05762   0.10655   1.000
    O423    O    0.82402   0.05693   0.10715   1.000
    O424    O    0.01915   0.78330   0.09693   1.000
    O425    O    0.51933   0.78262   0.09756   1.000
    O426    O    0.07790   0.76823   0.13927   1.000
    O427    O    0.57808   0.76801   0.14009   1.000
    O428    O    0.21137   0.91778   0.11440   1.000
    O429    O    0.23041   0.97204   0.12482   1.000
    O430    O    0.70918   0.91741   0.11481   1.000
    O431    O    0.72844   0.97164   0.12521   1.000
    O432    O    0.25461   0.03258   0.13457   1.000
    O433    O    0.27807   0.08651   0.14105   1.000
    O434    O    0.75292   0.03212   0.13496   1.000
    O435    O    0.77658   0.08601   0.14142   1.000
    O436    O    0.81200   0.46813   0.13468   1.000
    O437    O    0.88433   0.48445   0.16231   1.000
    O438    O    0.06639   0.57440   0.13546   1.000
    O439    O    0.02082   0.54078   0.16351   1.000
    O440    O    0.31301   0.46755   0.13608   1.000
    O441    O    0.38544   0.48392   0.16361   1.000
    O442    O    0.56711   0.57421   0.13644   1.000
    O443    O    0.52174   0.54046   0.16450   1.000
    O444    O    0.29124   0.70001   0.14217   1.000
    O445    O    0.22553   0.72354   0.16387   1.000
    O446    O    0.79212   0.70073   0.14376   1.000
    O447    O    0.72608   0.72407   0.16523   1.000
    O448    O    0.06009   0.15508   0.16756   1.000
    O449    O    0.56115   0.15526   0.16787   1.000
    O450    O    0.17377   0.00836   0.17998   1.000
    O451    O    0.67180   0.00822   0.18025   1.000
    O452    O    0.14809   0.74991   0.18371   1.000
    O453    O    0.06699   0.77829   0.20450   1.000
    O454    O    0.64829   0.75018   0.18476   1.000
    O455    O    0.56685   0.77831   0.20523   1.000
    O456    O    0.17240   0.37753   0.20969   1.000
    O457    O    0.67428   0.37936   0.21114   1.000
    O458    O    0.96640   0.50382   0.19258   1.000
    O459    O    0.91432   0.47132   0.21649   1.000
    O460    O    0.22099   0.72961   0.23053   1.000
    O461    O    0.46755   0.50336   0.19369   1.000
    O462    O    0.41573   0.47075   0.21772   1.000
    O463    O    0.06815   0.51727   0.23700   1.000
    O464    O    0.72108   0.73030   0.23183   1.000
    O465    O    0.56946   0.51715   0.23779   1.000
    O466    O    0.51370   0.24763   0.21404   1.000
    O467    O    0.01236   0.24702   0.21428   1.000
    O468    O    0.02459   0.18910   0.21458   1.000
    O469    O    0.04242   0.12544   0.21771   1.000
    O470    O    0.52516   0.18961   0.21448   1.000
    O471    O    0.54153   0.12575   0.21762   1.000
    O472    O    0.09094   0.96457   0.21211   1.000
    O473    O    0.06074   0.89350   0.23148   1.000
    O474    O    0.58865   0.96473   0.21252   1.000
    O475    O    0.55932   0.89363   0.23201   1.000
    O476    O    0.99453   0.79181   0.22311   1.000
    O477    O    0.49419   0.79180   0.22359   1.000
    O478    O    0.70879   0.27565   0.24216   1.000
    O479    O    0.20800   0.27447   0.24202   1.000
    O480    O    0.08240   0.05445   0.22840   1.000
    O481    O    0.18122   0.01710   0.26280   1.000
    O482    O    0.58037   0.05465   0.22839   1.000
    O483    O    0.67942   0.01742   0.26289   1.000
    O484    O    0.46338   0.22198   0.23039   1.000
    O485    O    0.96250   0.22097   0.23070   1.000
    O486    O    0.52898   0.23013   0.26964   1.000
    O487    O    0.02813   0.22951   0.26986   1.000
    O488    O    0.04989   0.83093   0.24572   1.000
    O489    O    0.04063   0.77419   0.25741   1.000
    O490    O    0.54955   0.83095   0.24625   1.000
    O491    O    0.54017   0.77425   0.25803   1.000
    O492    O    0.19905   0.33124   0.25386   1.000
    O493    O    0.18826   0.39385   0.26827   1.000
    O494    O    0.70045   0.33232   0.25470   1.000
    O495    O    0.69025   0.39480   0.26992   1.000
    O496    O    0.07644   0.87746   0.29004   1.000
    O497    O    0.33491   0.97103   0.28261   1.000
    O498    O    0.83314   0.97135   0.28263   1.000
    O499    O    0.57734   0.87742   0.29037   1.000
    O500    O    0.16666   0.55459   0.27155   1.000
    O501    O    0.20663   0.62566   0.28237   1.000
    O502    O    0.66691   0.55522   0.27202   1.000
    O503    O    0.70634   0.62652   0.28318   1.000
    O504    O    0.25450   0.29233   0.27613   1.000
    O505    O    0.18228   0.27878   0.29513   1.000
    O506    O    0.75548   0.29292   0.27644   1.000
    O507    O    0.68315   0.27947   0.29534   1.000
    O508    O    0.28630   0.72167   0.26998   1.000
    O509    O    0.22425   0.68943   0.28573   1.000
    O510    O    0.23603   0.74744   0.28617   1.000
    O511    O    0.78621   0.72278   0.27154   1.000
    O512    O    0.72443   0.69017   0.28705   1.000
    O513    O    0.73552   0.74826   0.28748   1.000
    O514    O    0.15807   0.46486   0.28774   1.000
    O515    O    0.07514   0.50835   0.31990   1.000
    O516    O    0.65993   0.46524   0.28900   1.000
    O517    O    0.57626   0.50862   0.32040   1.000
    O518    O    0.18878   0.65531   0.33258   1.000
    O519    O    0.69037   0.65557   0.33385   1.000
    O520    O    0.78159   0.00402   0.30687   1.000
    O521    O    0.72781   0.04113   0.33632   1.000
    O522    O    0.28319   0.00353   0.30691   1.000
    O523    O    0.22921   0.04048   0.33638   1.000
    O524    O    0.86356   0.98444   0.33684   1.000
    O525    O    0.36511   0.98397   0.33693   1.000
    O526    O    0.60223   0.25081   0.31630   1.000
    O527    O    0.52496   0.22425   0.33632   1.000
    O528    O    0.10146   0.25030   0.31635   1.000
    O529    O    0.02426   0.22389   0.33659   1.000
    O530    O    0.17208   0.26910   0.36047   1.000
    O531    O    0.67274   0.26940   0.36059   1.000
    O532    O    0.47044   0.58631   0.35864   1.000
    O533    O    0.97083   0.58622   0.35927   1.000
    O534    O    0.45941   0.20059   0.35818   1.000
    O535    O    0.95879   0.20038   0.35865   1.000
    O536    O    0.99431   0.53237   0.36549   1.000
    O537    O    0.01285   0.47195   0.37499   1.000
    O538    O    0.49454   0.53265   0.36547   1.000
    O539    O    0.51932   0.47243   0.37555   1.000
    O540    O    0.93584   0.96791   0.36424   1.000
    O541    O    0.43736   0.96747   0.36441   1.000
    O542    O    0.68283   0.07490   0.36472   1.000
    O543    O    0.18404   0.07409   0.36479   1.000
    O544    O    0.51851   0.21646   0.40035   1.000
    O545    O    0.01800   0.21643   0.40068   1.000
    O546    O    0.75418   0.05995   0.39696   1.000
    O547    O    0.25535   0.05915   0.39710   1.000
    O548    O    0.89138   0.00187   0.39801   1.000
    O549    O    0.39272   0.00127   0.39817   1.000
    O550    O    0.42321   0.55739   0.39311   1.000
    O551    O    0.92373   0.55727   0.39380   1.000
    O552    O    0.03197   0.41779   0.38523   1.000
    O553    O    0.53883   0.41842   0.38624   1.000
    O554    O    0.96759   0.43454   0.41358   1.000
    O555    O    0.47382   0.43505   0.41403   1.000
    O556    O    0.23123   0.28460   0.40254   1.000
    O557    O    0.16520   0.26160   0.42448   1.000
    O558    O    0.73178   0.28469   0.40281   1.000
    O559    O    0.66570   0.26156   0.42454   1.000
    O560    O    0.35923   0.57762   0.41821   1.000
    O561    O    0.37579   0.52073   0.43168   1.000
    O562    O    0.86039   0.57763   0.41949   1.000
    O563    O    0.87647   0.52056   0.43243   1.000
    O564    O    0.83579   0.04026   0.42868   1.000
    O565    O    0.78025   0.07547   0.45117   1.000
    O566    O    0.33694   0.03950   0.42887   1.000
    O567    O    0.28124   0.07455   0.45138   1.000
    O568    O    0.91824   0.01973   0.46238   1.000
    O569    O    0.41944   0.01906   0.46257   1.000
    O570    O    0.58874   0.23517   0.44428   1.000
    O571    O    0.51732   0.21097   0.45758   1.000
    O572    O    0.90179   0.45826   0.44271   1.000
    O573    O    0.93150   0.40300   0.44877   1.000
    O574    O    0.40162   0.45862   0.44253   1.000
    O575    O    0.43179   0.40352   0.44911   1.000
    O576    O    0.08832   0.23535   0.44444   1.000
    O577    O    0.01697   0.21123   0.45796   1.000
    O578    O    0.32783   0.48176   0.47234   1.000
    O579    O    0.82850   0.48155   0.47299   1.000
    O580    O    0.65523   0.25320   0.48021   1.000
    O581    O    0.15487   0.25355   0.48021   1.000
    O582    O    0.05545   0.96472   0.48171   1.000
    O583    O    0.55693   0.96438   0.48178   1.000
    O584    O    0.20785   0.54925   0.48917   1.000
    O585    O    0.70877   0.54912   0.48971   1.000
    O586    O    0.34444   0.74679   0.51955   1.000
    O587    O    0.84413   0.74593   0.52024   1.000
    O588    O    0.99897   0.99993   0.49959   1.000
    O589    O    0.94256   0.03516   0.51745   1.000
    O590    O    0.50030   0.99942   0.49971   1.000
    O591    O    0.44370   0.03445   0.51766   1.000
    O592    O    0.24935   0.50008   0.50029   1.000
    O593    O    0.29085   0.45094   0.51145   1.000
    O594    O    0.75016   0.49994   0.50097   1.000
    O595    O    0.79157   0.45074   0.51219   1.000
    O596    O    0.07953   0.98012   0.53689   1.000
    O597    O    0.58112   0.97988   0.53688   1.000
    O598    O    0.17106   0.51839   0.52839   1.000
    O599    O    0.67166   0.51835   0.52881   1.000
    O600    O    0.48239   0.78888   0.54234   1.000
    O601    O    0.98202   0.78825   0.54268   1.000
    O602    O    0.71965   0.92472   0.54830   1.000
    O603    O    0.21786   0.92468   0.54849   1.000
    O604    O    0.56769   0.59666   0.55190   1.000
    O605    O    0.06805   0.59686   0.55279   1.000
    O606    O    0.41084   0.76482   0.55555   1.000
    O607    O    0.33372   0.73861   0.57520   1.000
    O608    O    0.91060   0.76414   0.55609   1.000
    O609    O    0.83365   0.73789   0.57595   1.000
    O610    O    0.09784   0.54161   0.55879   1.000
    O611    O    0.12323   0.47932   0.56901   1.000
    O612    O    0.59782   0.54155   0.55854   1.000
    O613    O    0.62360   0.47942   0.56941   1.000
    O614    O    0.48096   0.78356   0.59957   1.000
    O615    O    0.98082   0.78308   0.59994   1.000
    O616    O    0.52560   0.56517   0.58692   1.000
    O617    O    0.02644   0.56529   0.58807   1.000
    O618    O    0.66372   0.95966   0.57068   1.000
    O619    O    0.60767   0.99780   0.60125   1.000
    O620    O    0.16192   0.95968   0.57083   1.000
    O621    O    0.10583   0.99781   0.60134   1.000
    O622    O    0.74538   0.94029   0.60257   1.000
    O623    O    0.24336   0.94007   0.60280   1.000
    O624    O    0.13934   0.42225   0.58188   1.000
    O625    O    0.64010   0.42253   0.58288   1.000
    O626    O    0.07619   0.44261   0.60778   1.000
    O627    O    0.57609   0.44279   0.60794   1.000
    O628    O    0.26745   0.71565   0.59686   1.000
    O629    O    0.76754   0.71491   0.59780   1.000
    O630    O    0.32639   0.73097   0.63914   1.000
    O631    O    0.82658   0.73042   0.63994   1.000
    O632    O    0.46056   0.58184   0.61465   1.000
    O633    O    0.48003   0.52782   0.62536   1.000
    O634    O    0.96216   0.58200   0.61652   1.000
    O635    O    0.98141   0.52787   0.62680   1.000
    O636    O    0.50474   0.46756   0.63550   1.000
    O637    O    0.52873   0.41389   0.64233   1.000
    O638    O    0.00577   0.46748   0.63629   1.000
    O639    O    0.02936   0.41366   0.64248   1.000
    O640    O    0.56278   0.03151   0.63497   1.000
    O641    O    0.63510   0.01529   0.66246   1.000
    O642    O    0.06092   0.03155   0.63502   1.000
    O643    O    0.13298   0.01505   0.66267   1.000
    O644    O    0.81671   0.92558   0.63496   1.000
    O645    O    0.77134   0.95915   0.66326   1.000
    O646    O    0.31454   0.92520   0.63531   1.000
    O647    O    0.26907   0.95872   0.66359   1.000
    O648    O    0.53996   0.79945   0.64181   1.000
    O649    O    0.47423   0.77597   0.66358   1.000
    O650    O    0.03991   0.79916   0.64204   1.000
    O651    O    0.97436   0.77564   0.66400   1.000
    O652    O    0.30946   0.34472   0.66739   1.000
    O653    O    0.81101   0.34460   0.66757   1.000
    O654    O    0.42309   0.49158   0.68040   1.000
    O655    O    0.92493   0.49155   0.68214   1.000
    O656    O    0.39678   0.74960   0.68351   1.000
    O657    O    0.31569   0.72118   0.70439   1.000
    O658    O    0.89708   0.74923   0.68414   1.000
    O659    O    0.81622   0.72074   0.70526   1.000
    O660    O    0.92333   0.12261   0.70994   1.000
    O661    O    0.42161   0.12049   0.71033   1.000
    O662    O    0.46987   0.77026   0.73025   1.000
    O663    O    0.71711   0.99602   0.69259   1.000
    O664    O    0.66518   0.02844   0.71672   1.000
    O665    O    0.97025   0.77009   0.73072   1.000
    O666    O    0.21477   0.99555   0.69294   1.000
    O667    O    0.16277   0.02794   0.71704   1.000
    O668    O    0.81894   0.98272   0.73689   1.000
    O669    O    0.31665   0.98231   0.73720   1.000
    O670    O    0.26186   0.25255   0.71357   1.000
    O671    O    0.76370   0.25234   0.71379   1.000
    O672    O    0.27390   0.31055   0.71416   1.000
    O673    O    0.29142   0.37432   0.71759   1.000
    O674    O    0.77550   0.31036   0.71434   1.000
    O675    O    0.79319   0.37409   0.71791   1.000
    O676    O    0.33973   0.53512   0.71208   1.000
    O677    O    0.30944   0.60610   0.73125   1.000
    O678    O    0.84166   0.53488   0.71382   1.000
    O679    O    0.81107   0.60578   0.73252   1.000
    O680    O    0.24326   0.70758   0.72308   1.000
    O681    O    0.74399   0.70696   0.72411   1.000
    O682    O    0.45669   0.22445   0.74130   1.000
    O683    O    0.95912   0.22583   0.74269   1.000
    O684    O    0.33121   0.44541   0.72847   1.000
    O685    O    0.42985   0.48300   0.76308   1.000
    O686    O    0.83327   0.44523   0.72975   1.000
    O687    O    0.93164   0.48265   0.76497   1.000
    O688    O    0.71337   0.27808   0.72995   1.000
    O689    O    0.21187   0.27837   0.73005   1.000
    O690    O    0.27749   0.27027   0.76922   1.000
    O691    O    0.77861   0.27012   0.76946   1.000
    O692    O    0.29862   0.66873   0.74556   1.000
    O693    O    0.28946   0.72550   0.75734   1.000
    O694    O    0.79979   0.66839   0.74668   1.000
    O695    O    0.79019   0.72515   0.75828   1.000
    O696    O    0.94994   0.16908   0.75431   1.000
    O697    O    0.93929   0.10645   0.76845   1.000
    O698    O    0.44804   0.16784   0.75387   1.000
    O699    O    0.43722   0.10553   0.76916   1.000
    O700    O    0.32524   0.62250   0.78982   1.000
    O701    O    0.82708   0.62236   0.79102   1.000
    O702    O    0.58331   0.52967   0.78349   1.000
    O703    O    0.08483   0.52883   0.78505   1.000
    O704    O    0.41543   0.94528   0.77163   1.000
    O705    O    0.45545   0.87436   0.78233   1.000
    O706    O    0.91756   0.94548   0.77164   1.000
    O707    O    0.95661   0.87444   0.78246   1.000
    O708    O    0.50342   0.20738   0.77548   1.000
    O709    O    0.43128   0.22096   0.79457   1.000
    O710    O    0.00521   0.20821   0.77700   1.000
    O711    O    0.93269   0.22163   0.79557   1.000
    O712    O    0.53528   0.77862   0.76963   1.000
    O713    O    0.47319   0.81066   0.78553   1.000
    O714    O    0.48511   0.75272   0.78585   1.000
    O715    O    0.03575   0.77863   0.76999   1.000
    O716    O    0.97356   0.81068   0.78575   1.000
    O717    O    0.98566   0.75274   0.78637   1.000
    O718    O    0.90910   0.03537   0.78773   1.000
    O719    O    0.82585   0.99186   0.81966   1.000
    O720    O    0.40685   0.03502   0.78842   1.000
    O721    O    0.32385   0.99129   0.82001   1.000
    O722    O    0.43769   0.84479   0.83248   1.000
    O723    O    0.93693   0.84491   0.83217   1.000
    O724    O    0.53161   0.49689   0.80745   1.000
    O725    O    0.47761   0.45964   0.83657   1.000
    O726    O    0.35069   0.24975   0.81573   1.000
    O727    O    0.27366   0.27637   0.83595   1.000
    O728    O    0.85147   0.24986   0.81632   1.000
    O729    O    0.77391   0.27607   0.83612   1.000
    O730    O    0.61368   0.51648   0.83758   1.000
    O731    O    0.03302   0.49617   0.80906   1.000
    O732    O    0.97883   0.45900   0.83817   1.000
    O733    O    0.11506   0.51567   0.83919   1.000
    O734    O    0.42119   0.23133   0.85987   1.000
    O735    O    0.92168   0.23161   0.86078   1.000
    O736    O    0.72083   0.91408   0.85831   1.000
    O737    O    0.21947   0.91311   0.85908   1.000
    O738    O    0.70808   0.29946   0.85780   1.000
    O739    O    0.20833   0.30008   0.85797   1.000
    O740    O    0.74452   0.96796   0.86483   1.000
    O741    O    0.76902   0.02843   0.87466   1.000
    O742    O    0.24293   0.96705   0.86546   1.000
    O743    O    0.26716   0.02758   0.87515   1.000
    O744    O    0.68605   0.53300   0.86511   1.000
    O745    O    0.43243   0.42577   0.86466   1.000
    O746    O    0.26743   0.28437   0.90002   1.000
    O747    O    0.76688   0.28388   0.90011   1.000
    O748    O    0.93344   0.42521   0.86620   1.000
    O749    O    0.18738   0.53212   0.86672   1.000
    O750    O    0.50388   0.44071   0.89705   1.000
    O751    O    0.64143   0.49888   0.89857   1.000
    O752    O    0.00487   0.44007   0.89864   1.000
    O753    O    0.14258   0.49810   0.90020   1.000
    O754    O    0.67346   0.94311   0.89267   1.000
    O755    O    0.17221   0.94204   0.89358   1.000
    O756    O    0.78832   0.08264   0.88515   1.000
    O757    O    0.28628   0.08183   0.88557   1.000
    O758    O    0.72352   0.06593   0.91311   1.000
    O759    O    0.22172   0.06501   0.91372   1.000
    O760    O    0.48027   0.21621   0.90197   1.000
    O761    O    0.41439   0.23941   0.92388   1.000
    O762    O    0.98043   0.21660   0.90314   1.000
    O763    O    0.91403   0.23944   0.92470   1.000
    O764    O    0.60971   0.92278   0.91797   1.000
    O765    O    0.62599   0.97989   0.93118   1.000
    O766    O    0.10878   0.92158   0.91912   1.000
    O767    O    0.12479   0.97875   0.93218   1.000
    O768    O    0.58563   0.46035   0.92891   1.000
    O769    O    0.52988   0.42507   0.95112   1.000
    O770    O    0.08659   0.45966   0.93053   1.000
    O771    O    0.03077   0.42446   0.95272   1.000
    O772    O    0.66836   0.48077   0.96264   1.000
    O773    O    0.16924   0.48007   0.96432   1.000
    O774    O    0.65156   0.04224   0.94179   1.000
    O775    O    0.68148   0.09756   0.94817   1.000
    O776    O    0.33766   0.26583   0.94381   1.000
    O777    O    0.26643   0.29005   0.95729   1.000
    O778    O    0.83679   0.26550   0.94424   1.000
    O779    O    0.76518   0.28942   0.95698   1.000
    O780    O    0.15007   0.04118   0.94264   1.000
    O781    O    0.17971   0.09657   0.94888   1.000
    O782    O    0.57792   0.01895   0.97172   1.000
    O783    O    0.07667   0.01781   0.97272   1.000
loop_
    _geom_bond_atom_site_label_1
    _geom_bond_atom_site_label_2
    _geom_bond_distance
    _geom_bond_site_symmetry_2
    _ccdc_geom_bond_type
    C88    O376      0.48371  1_554   S
    C250   O376      0.48371      .   S
    C89    O377      0.47680  1_554   S
    C251   O377      0.47680      .   S
    C238   O378      0.72791      .   S
    C232   O378      0.72791      .   S
    C238   O379      0.54664  1_554   S
    C78    O379      0.54664      .   S
    C238   O380      0.67641  1_564   S
    C327   O380      0.67641      .   S
    C183   O381      0.72885      .   S
    C177   O381      0.72885      .   S
    C183   O382      0.54663  1_554   S
    C33    O382      0.54663      .   S
    C183   O383      0.67755  1_554   S
    C271   O383      0.67755      .   S
    C239   O384      0.72785      .   S
    C233   O384      0.72785      .   S
    C239   O385      0.54661  1_554   S
    C79    O385      0.54661      .   S
    C239   O386      0.67635      .   S
    C326   O386      0.67635  1_446   S
    C182   O387      0.72835      .   S
    C176   O387      0.72835      .   S
    C182   O388      0.54654  1_554   S
    C32    O388      0.54654      .   S
    C182   O389      0.67732      .   S
    C270   O389      0.67732  1_556   S
    C14    O390      0.54550      .   S
    C160   O390      0.54550      .   S
    C15    O391      0.54556      .   S
    C161   O391      0.54556      .   S
    C29    O392      0.54521      .   S
    C179   O392      0.54521      .   S
    C151   O393      0.54659      .   S
    C327   O393      0.54659  1_556   S
    C28    O394      0.54516      .   S
    C178   O394      0.54516      .   S
    C150   O395      0.54662      .   S
    C326   O395      0.54662  1_556   S
    C74    O396      0.54496      .   S
    C234   O396      0.54496      .   S
    C75    O397      0.54488      .   S
    C235   O397      0.54488      .   S
    C105   O398      0.54726      .   S
    C271   O398      0.54726  1_556   S
    C104   O399      0.54663      .   S
    C270   O399      0.54663  1_556   S
    C162   O400      0.69908      .   S
    C160   O400      0.69908      .   S
    C162   O401      0.69790      .   S
    C164   O401      0.69790      .   S
    C162   O402      0.54565      .   S
    C16    O402      0.54565  1_556   S
    C163   O403      0.69908      .   S
    C161   O403      0.69908      .   S
    C163   O404      0.69793      .   S
    C165   O404      0.69793      .   S
    C163   O405      0.54567      .   S
    C17    O405      0.54567  1_556   S
    C232   O406      0.70349      .   S
    C234   O406      0.70349      .   S
    C232   O407      0.70443  1_565   S
    C230   O407      0.70443      .   S
    C233   O408      0.70346      .   S
    C235   O408      0.70346      .   S
    C233   O409      0.70440  1_565   S
    C231   O409      0.70440      .   S
    C234   O410      0.69371      .   S
    C236   O410      0.69371      .   S
    C160   O411      0.69812      .   S
    C158   O411      0.69812      .   S
    C235   O412      0.69372      .   S
    C237   O412      0.69372      .   S
    C161   O413      0.69809      .   S
    C159   O413      0.69809      .   S
    C177   O414      0.70475      .   S
    C179   O414      0.70475      .   S
    C177   O415      0.70407      .   S
    C175   O415      0.70407      .   S
    C176   O416      0.70463      .   S
    C178   O416      0.70463      .   S
    C176   O417      0.70407      .   S
    C174   O417      0.70407      .   S
    C179   O418      0.69446      .   S
    C180   O418      0.69446  1_455   S
    C178   O419      0.69388      .   S
    C181   O419      0.69388      .   S
    C72    O420      0.54412      .   S
    C230   O420      0.54412      .   S
    C73    O421      0.54420      .   S
    C231   O421      0.54420      .   S
    C230   O422      0.69109      .   S
    C228   O422      0.69109      .   S
    C231   O423      0.69105      .   S
    C229   O423      0.69105      .   S
    C19    O424      0.54546  1_655   S
    C164   O424      0.54546      .   S
    C18    O425      0.54551      .   S
    C165   O425      0.54551      .   S
    C164   O426      0.70155      .   S
    C166   O426      0.70155      .   S
    C165   O427      0.70152      .   S
    C167   O427      0.70152      .   S
    C236   O428      0.54503      .   S
    C76    O428      0.54503      .   S
    C236   O429      0.67610      .   S
    C334   O429      0.67610  1_545   S
    C237   O430      0.54501      .   S
    C77    O430      0.54501      .   S
    C237   O431      0.67600      .   S
    C335   O431      0.67600  1_545   S
    C228   O432      0.67704      .   S
    C334   O432      0.67704      .   S
    C228   O433      0.54441      .   S
    C70    O433      0.54441      .   S
    C229   O434      0.67704      .   S
    C335   O434      0.67704      .   S
    C229   O435      0.54438      .   S
    C71    O435      0.54438      .   S
    C175   O436      0.54521      .   S
    C27    O436      0.54521      .   S
    C175   O437      0.69127      .   S
    C173   O437      0.69127      .   S
    C180   O438      0.54515      .   S
    C30    O438      0.54515      .   S
    C180   O439      0.67588      .   S
    C328   O439      0.67588      .   S
    C174   O440      0.54537      .   S
    C26    O440      0.54537      .   S
    C174   O441      0.69114      .   S
    C172   O441      0.69114      .   S
    C181   O442      0.54513      .   S
    C31    O442      0.54513      .   S
    C181   O443      0.67615      .   S
    C329   O443      0.67615      .   S
    C158   O444      0.54577      .   S
    C12    O444      0.54577      .   S
    C158   O445      0.70176      .   S
    C156   O445      0.70176      .   S
    C159   O446      0.54578      .   S
    C13    O446      0.54578      .   S
    C159   O447      0.70178      .   S
    C157   O447      0.70178      .   S
    C352   O448      0.62257      .   S
    C196   O448      0.62257      .   S
    C353   O449      0.62273      .   S
    C197   O449      0.62273      .   S
    C334   O450      1.03043      .   S
    C2     O450      1.03043      .   S
    C335   O451      1.03070      .   S
    C3     O451      1.03070      .   S
    C166   O452      0.70660      .   S
    C156   O452      0.70660      .   S
    C166   O453      0.75623      .   S
    C168   O453      0.75623      .   S
    C167   O454      0.70655      .   S
    C157   O454      0.70655      .   S
    C167   O455      0.75625      .   S
    C169   O455      0.75625      .   S
    C356   O456      0.62147      .   S
    C214   O456      0.62147      .   S
    C357   O457      0.62173      .   S
    C215   O457      0.62173      .   S
    C173   O458      0.67638      .   S
    C328   O458      0.67638  1_455   S
    C173   O459      0.54480      .   S
    C25    O459      0.54480      .   S
    C156   O460      0.75624      .   S
    C154   O460      0.75624      .   S
    C172   O461      0.67631      .   S
    C329   O461      0.67631      .   S
    C172   O462      0.54471      .   S
    C24    O462      0.54471      .   S
    C328   O463      1.04199      .   S
    C0     O463      1.04199      .   S
    C157   O464      0.75609      .   S
    C155   O464      0.75609      .   S
    C329   O465      1.04071      .   S
    C1     O465      1.04071      .   S
    C47    O466      0.54839      .   S
    C199   O466      0.54839      .   S
    C46    O467      0.54848      .   S
    C198   O467      0.54848      .   S
    C196   O468      0.76923      .   S
    C198   O468      0.76923      .   S
    C196   O469      0.65164      .   S
    C354   O469      0.65164      .   S
    C197   O470      0.76922      .   S
    C199   O470      0.76922      .   S
    C197   O471      0.65181      .   S
    C355   O471      0.65181      .   S
    C350   O472      0.97862      .   S
    C2     O472      0.97862  1_545   S
    C350   O473      0.65258      .   S
    C170   O473      0.65258      .   S
    C351   O474      0.97863      .   S
    C3     O474      0.97863  1_545   S
    C351   O475      0.65261      .   S
    C171   O475      0.65261      .   S
    C21    O476      0.55042      .   S
    C168   O476      0.55042  1_455   S
    C20    O477      0.55033      .   S
    C169   O477      0.55033      .   S
    C59    O478      0.54821      .   S
    C213   O478      0.54821      .   S
    C58    O479      0.54829      .   S
    C212   O479      0.54829      .   S
    C2     O480      0.97364      .   S
    C354   O480      0.97364      .   S
    C2     O481      1.04324      .   S
    C332   O481      1.04324      .   S
    C3     O482      0.97394      .   S
    C355   O482      0.97394      .   S
    C3     O483      1.04385      .   S
    C333   O483      1.04385      .   S
    C44    O484      0.55055      .   S
    C199   O484      0.55055      .   S
    C45    O485      0.55054      .   S
    C198   O485      0.55054  1_455   S
    C199   O486      0.75637      .   S
    C201   O486      0.75637      .   S
    C198   O487      0.75628      .   S
    C200   O487      0.75628      .   S
    C168   O488      0.76980      .   S
    C170   O488      0.76980      .   S
    C168   O489      0.54824      .   S
    C22    O489      0.54824      .   S
    C169   O490      0.76961      .   S
    C171   O490      0.76961      .   S
    C169   O491      0.54826      .   S
    C23    O491      0.54826      .   S
    C214   O492      0.76978      .   S
    C212   O492      0.76978      .   S
    C214   O493      0.65243      .   S
    C358   O493      0.65243      .   S
    C215   O494      0.76954      .   S
    C213   O494      0.76954      .   S
    C215   O495      0.65272      .   S
    C359   O495      0.65272      .   S
    C170   O496      0.62137      .   S
    C348   O496      0.62137      .   S
    C60    O497      0.54532      .   S
    C216   O497      0.54532      .   S
    C61    O498      0.54477      .   S
    C217   O498      0.54477      .   S
    C171   O499      0.62139      .   S
    C349   O499      0.62139      .   S
    C346   O500      0.97376      .   S
    C0     O500      0.97376      .   S
    C346   O501      0.65152      .   S
    C152   O501      0.65152      .   S
    C347   O502      0.97170      .   S
    C1     O502      0.97170      .   S
    C347   O503      0.65162      .   S
    C153   O503      0.65162      .   S
    C212   O504      0.55048      .   S
    C56    O504      0.55048      .   S
    C212   O505      0.75620      .   S
    C210   O505      0.75620      .   S
    C213   O506      0.55050      .   S
    C57    O506      0.55050      .   S
    C213   O507      0.75647      .   S
    C211   O507      0.75647      .   S
    C154   O508      0.55058      .   S
    C8     O508      0.55058      .   S
    C154   O509      0.76928      .   S
    C152   O509      0.76928      .   S
    C154   O510      0.54846      .   S
    C10    O510      0.54846      .   S
    C155   O511      0.55067      .   S
    C9     O511      0.55067      .   S
    C155   O512      0.76935      .   S
    C153   O512      0.76935      .   S
    C155   O513      0.54842      .   S
    C11    O513      0.54842      .   S
    C0     O514      0.97829      .   S
    C358   O514      0.97829      .   S
    C0     O515      1.03087      .   S
    C330   O515      1.03087      .   S
    C1     O516      0.97727      .   S
    C359   O516      0.97727      .   S
    C1     O517      1.03345      .   S
    C331   O517      1.03345      .   S
    C152   O518      0.62254      .   S
    C344   O518      0.62254      .   S
    C153   O519      0.61646      .   S
    C345   O519      0.61646      .   S
    C333   O520      0.67645      .   S
    C217   O520      0.67645  1_565   S
    C333   O521      0.67584      .   S
    C225   O521      0.67584      .   S
    C332   O522      0.67641      .   S
    C216   O522      0.67641  1_565   S
    C332   O523      0.67587      .   S
    C224   O523      0.67587      .   S
    C217   O524      0.69145      .   S
    C219   O524      0.69145      .   S
    C216   O525      0.69144      .   S
    C218   O525      0.69144      .   S
    C201   O526      0.70656      .   S
    C211   O526      0.70656      .   S
    C201   O527      0.70182      .   S
    C202   O527      0.70182      .   S
    C200   O528      0.70657      .   S
    C210   O528      0.70657      .   S
    C200   O529      0.70170      .   S
    C203   O529      0.70170  1_655   S
    C210   O530      0.70153      .   S
    C208   O530      0.70153      .   S
    C211   O531      0.70159      .   S
    C209   O531      0.70159      .   S
    C34    O532      0.54447      .   S
    C184   O532      0.54447      .   S
    C35    O533      0.54444      .   S
    C185   O533      0.54444      .   S
    C48    O534      0.54576      .   S
    C202   O534      0.54576      .   S
    C49    O535      0.54578      .   S
    C203   O535      0.54578      .   S
    C330   O536      0.67710  1_455   S
    C185   O536      0.67710      .   S
    C330   O537      0.69381      .   S
    C193   O537      0.69381      .   S
    C331   O538      0.67708      .   S
    C184   O538      0.67708      .   S
    C331   O539      0.67617      .   S
    C192   O539      0.67617      .   S
    C63    O540      0.54544      .   S
    C219   O540      0.54544      .   S
    C62    O541      0.54541      .   S
    C218   O541      0.54541      .   S
    C67    O542      0.54519      .   S
    C225   O542      0.54519      .   S
    C66    O543      0.54519      .   S
    C224   O543      0.54519      .   S
    C202   O544      0.69810      .   S
    C205   O544      0.69810      .   S
    C203   O545      0.69814  1_655   S
    C204   O545      0.69814      .   S
    C225   O546      0.69436      .   S
    C223   O546      0.69436      .   S
    C224   O547      0.69439      .   S
    C222   O547      0.69439      .   S
    C219   O548      0.70420  1_565   S
    C221   O548      0.70420      .   S
    C218   O549      0.70415  1_565   S
    C220   O549      0.70415      .   S
    C184   O550      0.69116      .   S
    C186   O550      0.69116      .   S
    C185   O551      0.69106      .   S
    C187   O551      0.69106      .   S
    C40    O552      0.59598      .   S
    C193   O552      0.59598      .   S
    C41    O553      0.54514      .   S
    C192   O553      0.54514      .   S
    C193   O554      0.63727  1_455   S
    C191   O554      0.63727      .   S
    C192   O555      0.69378      .   S
    C190   O555      0.69378      .   S
    C208   O556      0.54546      .   S
    C54    O556      0.54546      .   S
    C208   O557      0.69785      .   S
    C206   O557      0.69785      .   S
    C209   O558      0.54542      .   S
    C55    O558      0.54542      .   S
    C209   O559      0.69783      .   S
    C207   O559      0.69783      .   S
    C186   O560      0.54417      .   S
    C36    O560      0.54417      .   S
    C186   O561      0.70457      .   S
    C188   O561      0.70457      .   S
    C187   O562      0.54412      .   S
    C37    O562      0.54412      .   S
    C187   O563      0.70453      .   S
    C189   O563      0.70453      .   S
    C223   O564      0.70482      .   S
    C221   O564      0.70482      .   S
    C223   O565      0.54525      .   S
    C65    O565      0.54525      .   S
    C222   O566      0.70484      .   S
    C220   O566      0.70484      .   S
    C222   O567      0.54519      .   S
    C64    O567      0.54519      .   S
    C221   O568      0.72882      .   S
    C227   O568      0.72882      .   S
    C220   O569      0.72889      .   S
    C226   O569      0.72889      .   S
    C205   O570      0.69911      .   S
    C207   O570      0.69911      .   S
    C205   O571      0.54550      .   S
    C50    O571      0.54550      .   S
    C191   O572      0.70350      .   S
    C189   O572      0.70350      .   S
    C191   O573      0.54488      .   S
    C39    O573      0.54488      .   S
    C190   O574      0.70351      .   S
    C188   O574      0.70351      .   S
    C190   O575      0.54490      .   S
    C38    O575      0.54490      .   S
    C204   O576      0.69908      .   S
    C206   O576      0.69908      .   S
    C204   O577      0.54553      .   S
    C51    O577      0.54553  1_655   S
    C188   O578      0.72803      .   S
    C194   O578      0.72803      .   S
    C189   O579      0.72799      .   S
    C195   O579      0.72799      .   S
    C207   O580      0.54570      .   S
    C53    O580      0.54570      .   S
    C206   O581      0.54568      .   S
    C52    O581      0.54568      .   S
    C140   O582      0.54721      .   S
    C314   O582      0.54721      .   S
    C141   O583      0.54688      .   S
    C315   O583      0.54688      .   S
    C114   O584      0.54674      .   S
    C282   O584      0.54674      .   S
    C115   O585      0.54675      .   S
    C283   O585      0.54675      .   S
    C124   O586      0.54567      .   S
    C294   O586      0.54567      .   S
    C125   O587      0.54569      .   S
    C295   O587      0.54569      .   S
    C227   O588      0.67739  1_545   S
    C314   O588      0.67739  1_455   S
    C227   O589      0.54687      .   S
    C69    O589      0.54687      .   S
    C226   O590      0.67740  1_545   S
    C315   O590      0.67740      .   S
    C226   O591      0.54682      .   S
    C68    O591      0.54682      .   S
    C194   O592      0.67656      .   S
    C282   O592      0.67656      .   S
    C194   O593      0.54664      .   S
    C42    O593      0.54664      .   S
    C195   O594      0.67658      .   S
    C283   O594      0.67658      .   S
    C195   O595      0.54678      .   S
    C43    O595      0.54678      .   S
    C314   O596      0.72900      .   S
    C308   O596      0.72900      .   S
    C315   O597      0.72891      .   S
    C309   O597      0.72891      .   S
    C282   O598      0.72811      .   S
    C276   O598      0.72811      .   S
    C283   O599      0.72794      .   S
    C277   O599      0.72794      .   S
    C123   O600      0.54551      .   S
    C292   O600      0.54551      .   S
    C122   O601      0.54555  1_455   S
    C293   O601      0.54555      .   S
    C137   O602      0.54518      .   S
    C311   O602      0.54518      .   S
    C136   O603      0.54519      .   S
    C310   O603      0.54519      .   S
    C111   O604      0.54488      .   S
    C279   O604      0.54488      .   S
    C110   O605      0.54484      .   S
    C278   O605      0.54484      .   S
    C294   O606      0.69909      .   S
    C292   O606      0.69909      .   S
    C294   O607      0.69791      .   S
    C296   O607      0.69791      .   S
    C295   O608      0.69910      .   S
    C293   O608      0.69910      .   S
    C295   O609      0.69794      .   S
    C297   O609      0.69794      .   S
    C276   O610      0.70347      .   S
    C278   O610      0.70347      .   S
    C276   O611      0.70448      .   S
    C274   O611      0.70448      .   S
    C277   O612      0.70351      .   S
    C279   O612      0.70351      .   S
    C277   O613      0.70450      .   S
    C275   O613      0.70450      .   S
    C292   O614      0.69818      .   S
    C291   O614      0.69818      .   S
    C293   O615      0.69814      .   S
    C290   O615      0.69814  1_455   S
    C279   O616      0.69320      .   S
    C281   O616      0.69320      .   S
    C278   O617      0.69378      .   S
    C280   O617      0.69378  1_655   S
    C309   O618      0.70482      .   S
    C311   O618      0.70482      .   S
    C309   O619      0.70421      .   S
    C307   O619      0.70421  1_545   S
    C308   O620      0.70484      .   S
    C310   O620      0.70484      .   S
    C308   O621      0.70408      .   S
    C306   O621      0.70408  1_545   S
    C311   O622      0.69451      .   S
    C313   O622      0.69451      .   S
    C310   O623      0.69388      .   S
    C312   O623      0.69388      .   S
    C108   O624      0.54411      .   S
    C274   O624      0.54411      .   S
    C109   O625      0.54413      .   S
    C275   O625      0.54413      .   S
    C274   O626      0.69115      .   S
    C272   O626      0.69115      .   S
    C275   O627      0.69110      .   S
    C273   O627      0.69110      .   S
    C126   O628      0.54544      .   S
    C296   O628      0.54544      .   S
    C127   O629      0.54544      .   S
    C297   O629      0.54544      .   S
    C296   O630      0.70150      .   S
    C298   O630      0.70150      .   S
    C297   O631      0.70136      .   S
    C299   O631      0.70136      .   S
    C281   O632      0.54525      .   S
    C112   O632      0.54525      .   S
    C281   O633      0.67657      .   S
    C338   O633      0.67657      .   S
    C280   O634      0.54499      .   S
    C113   O634      0.54499      .   S
    C280   O635      0.67621      .   S
    C339   O635      0.67621      .   S
    C273   O636      0.67711      .   S
    C338   O636      0.67711      .   S
    C273   O637      0.54445      .   S
    C107   O637      0.54445      .   S
    C272   O638      0.67701      .   S
    C339   O638      0.67701  1_655   S
    C272   O639      0.54441      .   S
    C106   O639      0.54441      .   S
    C307   O640      0.54537      .   S
    C135   O640      0.54537      .   S
    C307   O641      0.69136      .   S
    C305   O641      0.69136      .   S
    C306   O642      0.54541      .   S
    C134   O642      0.54541      .   S
    C306   O643      0.69139      .   S
    C304   O643      0.69139      .   S
    C313   O644      0.54518      .   S
    C139   O644      0.54518      .   S
    C313   O645      0.67583      .   S
    C341   O645      0.67583      .   S
    C312   O646      0.54514      .   S
    C138   O646      0.54514      .   S
    C312   O647      0.67654      .   S
    C340   O647      0.67654      .   S
    C291   O648      0.54578      .   S
    C121   O648      0.54578      .   S
    C291   O649      0.70169      .   S
    C288   O649      0.70169      .   S
    C290   O650      0.54577      .   S
    C120   O650      0.54577      .   S
    C290   O651      0.70168  1_455   S
    C289   O651      0.70168      .   S
    C360   O652      0.62257      .   S
    C240   O652      0.62257      .   S
    C361   O653      0.62256      .   S
    C241   O653      0.62256      .   S
    C338   O654      1.03093      .   S
    C4     O654      1.03093      .   S
    C339   O655      1.03372      .   S
    C5     O655      1.03372      .   S
    C298   O656      0.70660      .   S
    C288   O656      0.70660      .   S
    C298   O657      0.75628      .   S
    C300   O657      0.75628      .   S
    C299   O658      0.70657      .   S
    C289   O658      0.70657      .   S
    C299   O659      0.75641      .   S
    C301   O659      0.75641      .   S
    C365   O660      0.62133      .   S
    C259   O660      0.62133      .   S
    C364   O661      0.62171      .   S
    C258   O661      0.62171      .   S
    C288   O662      0.75626      .   S
    C286   O662      0.75626      .   S
    C305   O663      0.67639  1_545   S
    C341   O663      0.67639      .   S
    C305   O664      0.54472      .   S
    C133   O664      0.54472      .   S
    C289   O665      0.75640      .   S
    C287   O665      0.75640      .   S
    C304   O666      0.67633  1_545   S
    C340   O666      0.67633      .   S
    C304   O667      0.54475      .   S
    C132   O667      0.54475      .   S
    C341   O668      1.04291      .   S
    C7     O668      1.04291      .   S
    C340   O669      1.04265      .   S
    C6     O669      1.04265      .   S
    C82    O670      0.54830      .   S
    C242   O670      0.54830      .   S
    C83    O671      0.54843      .   S
    C243   O671      0.54843      .   S
    C240   O672      0.76906      .   S
    C242   O672      0.76906      .   S
    C240   O673      0.65158      .   S
    C362   O673      0.65158      .   S
    C241   O674      0.76943      .   S
    C243   O674      0.76943      .   S
    C241   O675      0.65150      .   S
    C363   O675      0.65150      .   S
    C374   O676      0.97805      .   S
    C4     O676      0.97805      .   S
    C374   O677      0.65215      .   S
    C302   O677      0.65215      .   S
    C375   O678      0.97746      .   S
    C5     O678      0.97746      .   S
    C375   O679      0.65255      .   S
    C303   O679      0.65255      .   S
    C128   O680      0.55044      .   S
    C300   O680      0.55044      .   S
    C129   O681      0.55065      .   S
    C301   O681      0.55065      .   S
    C94    O682      0.54820      .   S
    C256   O682      0.54820      .   S
    C95    O683      0.54830      .   S
    C257   O683      0.54830      .   S
    C4     O684      0.97360      .   S
    C362   O684      0.97360      .   S
    C4     O685      1.04301      .   S
    C336   O685      1.04301      .   S
    C5     O686      0.97267      .   S
    C363   O686      0.97267      .   S
    C5     O687      1.03667      .   S
    C337   O687      1.03667      .   S
    C81    O688      0.55062      .   S
    C243   O688      0.55062      .   S
    C80    O689      0.55055      .   S
    C242   O689      0.55055      .   S
    C242   O690      0.75647      .   S
    C244   O690      0.75647      .   S
    C243   O691      0.75628      .   S
    C245   O691      0.75628      .   S
    C300   O692      0.76958      .   S
    C302   O692      0.76958      .   S
    C300   O693      0.54827      .   S
    C130   O693      0.54827      .   S
    C301   O694      0.76960      .   S
    C303   O694      0.76960      .   S
    C301   O695      0.54828      .   S
    C131   O695      0.54828      .   S
    C259   O696      0.76975      .   S
    C257   O696      0.76975      .   S
    C259   O697      0.65260      .   S
    C367   O697      0.65260      .   S
    C258   O698      0.76973      .   S
    C256   O698      0.76973      .   S
    C258   O699      0.65257      .   S
    C366   O699      0.65257      .   S
    C302   O700      0.62209      .   S
    C372   O700      0.62209      .   S
    C303   O701      0.62163      .   S
    C373   O701      0.62163      .   S
    C97    O702      0.54478      .   S
    C261   O702      0.54478      .   S
    C96    O703      0.54503      .   S
    C260   O703      0.54503      .   S
    C370   O704      0.97379      .   S
    C6     O704      0.97379      .   S
    C370   O705      0.65159      .   S
    C284   O705      0.65159      .   S
    C371   O706      0.97368      .   S
    C7     O706      0.97368      .   S
    C371   O707      0.65177      .   S
    C285   O707      0.65177      .   S
    C256   O708      0.55052      .   S
    C93    O708      0.55052      .   S
    C256   O709      0.75636      .   S
    C254   O709      0.75636      .   S
    C257   O710      0.55038  1_655   S
    C92    O710      0.55038      .   S
    C257   O711      0.75616      .   S
    C255   O711      0.75616      .   S
    C286   O712      0.55059      .   S
    C117   O712      0.55059      .   S
    C286   O713      0.76934      .   S
    C284   O713      0.76934      .   S
    C286   O714      0.54843      .   S
    C118   O714      0.54843      .   S
    C287   O715      0.55050  1_655   S
    C116   O715      0.55050      .   S
    C287   O716      0.76906      .   S
    C285   O716      0.76906      .   S
    C287   O717      0.54841      .   S
    C119   O717      0.54841      .   S
    C7     O718      0.97867  1_565   S
    C367   O718      0.97867      .   S
    C7     O719      1.03117      .   S
    C343   O719      1.03117      .   S
    C6     O720      0.97836  1_565   S
    C366   O720      0.97836      .   S
    C6     O721      1.03076      .   S
    C342   O721      1.03076      .   S
    C284   O722      0.62260      .   S
    C368   O722      0.62260      .   S
    C285   O723      0.62272      .   S
    C369   O723      0.62272      .   S
    C336   O724      0.67649      .   S
    C261   O724      0.67649      .   S
    C336   O725      0.67580      .   S
    C268   O725      0.67580      .   S
    C244   O726      0.70653      .   S
    C254   O726      0.70653      .   S
    C244   O727      0.70175      .   S
    C246   O727      0.70175      .   S
    C245   O728      0.70659      .   S
    C255   O728      0.70659      .   S
    C245   O729      0.70171      .   S
    C247   O729      0.70171      .   S
    C261   O730      0.69131      .   S
    C263   O730      0.69131      .   S
    C337   O731      0.67637  1_655   S
    C260   O731      0.67637      .   S
    C337   O732      0.67579      .   S
    C269   O732      0.67579      .   S
    C260   O733      0.69101      .   S
    C262   O733      0.69101      .   S
    C254   O734      0.70154      .   S
    C252   O734      0.70154      .   S
    C255   O735      0.70135      .   S
    C253   O735      0.70135      .   S
    C143   O736      0.54440      .   S
    C317   O736      0.54440      .   S
    C142   O737      0.54443      .   S
    C316   O737      0.54443      .   S
    C85    O738      0.54578      .   S
    C247   O738      0.54578      .   S
    C84    O739      0.54575      .   S
    C246   O739      0.54575      .   S
    C343   O740      0.67705      .   S
    C317   O740      0.67705      .   S
    C343   O741      0.67608  1_565   S
    C325   O741      0.67608      .   S
    C342   O742      0.67712      .   S
    C316   O742      0.67712      .   S
    C342   O743      0.67625  1_565   S
    C324   O743      0.67625      .   S
    C99    O744      0.54540      .   S
    C263   O744      0.54540      .   S
    C102   O745      0.54519      .   S
    C268   O745      0.54519      .   S
    C246   O746      0.69811      .   S
    C248   O746      0.69811      .   S
    C247   O747      0.69817      .   S
    C249   O747      0.69817      .   S
    C103   O748      0.54518      .   S
    C269   O748      0.54518      .   S
    C98    O749      0.54537      .   S
    C262   O749      0.54537      .   S
    C268   O750      0.69447      .   S
    C267   O750      0.69447      .   S
    C263   O751      0.70418      .   S
    C265   O751      0.70418      .   S
    C269   O752      0.69423  1_655   S
    C266   O752      0.69423      .   S
    C262   O753      0.70419      .   S
    C264   O753      0.70419      .   S
    C317   O754      0.69109      .   S
    C319   O754      0.69109      .   S
    C316   O755      0.69111      .   S
    C318   O755      0.69111      .   S
    C149   O756      0.54500      .   S
    C325   O756      0.54500      .   S
    C148   O757      0.54496      .   S
    C324   O757      0.54496      .   S
    C325   O758      0.69377      .   S
    C323   O758      0.69377      .   S
    C324   O759      0.69383      .   S
    C322   O759      0.69383      .   S
    C252   O760      0.54546      .   S
    C91    O760      0.54546      .   S
    C252   O761      0.69789      .   S
    C250   O761      0.69789      .   S
    C253   O762      0.54546      .   S
    C90    O762      0.54546  1_455   S
    C253   O763      0.69815      .   S
    C251   O763      0.69815      .   S
    C319   O764      0.54413      .   S
    C145   O764      0.54413      .   S
    C319   O765      0.70439      .   S
    C321   O765      0.70439  1_545   S
    C318   O766      0.54400      .   S
    C144   O766      0.54400      .   S
    C318   O767      0.70439      .   S
    C320   O767      0.70439  1_545   S
    C267   O768      0.70480      .   S
    C265   O768      0.70480      .   S
    C267   O769      0.54522      .   S
    C101   O769      0.54522      .   S
    C266   O770      0.70469      .   S
    C264   O770      0.70469      .   S
    C266   O771      0.54478      .   S
    C100   O771      0.54478      .   S
    C265   O772      0.72814      .   S
    C271   O772      0.72814      .   S
    C264   O773      0.72825      .   S
    C270   O773      0.72825      .   S
    C323   O774      0.70348      .   S
    C321   O774      0.70348      .   S
    C323   O775      0.54487      .   S
    C147   O775      0.54487      .   S
    C248   O776      0.69912      .   S
    C250   O776      0.69912      .   S
    C248   O777      0.54551      .   S
    C86    O777      0.54551      .   S
    C249   O778      0.69910      .   S
    C251   O778      0.69910      .   S
    C249   O779      0.54036      .   S
    C87    O779      0.54036      .   S
    C322   O780      0.70344      .   S
    C320   O780      0.70344      .   S
    C322   O781      0.54490      .   S
    C146   O781      0.54490      .   S
    C321   O782      0.72794      .   S
    C327   O782      0.72794      .   S
    C320   O783      0.72787      .   S
    C326   O783      0.72787      .   S
