# CIF file generated by openbabel 2.4.90, see http://openbabel.sf.net
data_I
_chemical_name_common ''
_cell_length_a 13
_cell_length_b 18.343
_cell_length_c 18.751
_cell_angle_alpha 90.178
_cell_angle_beta 96.467
_cell_angle_gamma 90.123
_space_group_name_H-M_alt 'P 1'
_space_group_name_Hall 'P 1'
loop_
    _symmetry_equiv_pos_as_xyz
    x,y,z
loop_
    _atom_site_label
    _atom_site_type_symbol
    _atom_site_fract_x
    _atom_site_fract_y
    _atom_site_fract_z
    _atom_site_occupancy
    Zr0     Zr   0.12458   0.51241   0.28080   1.000
    Zr1     Zr   0.62614   0.51256   0.28138   1.000
    Zr2     Zr   0.12437   0.01231   0.21910   1.000
    Zr3     Zr   0.62232   0.01240   0.21932   1.000
    Zr4     Zr   0.37325   0.48761   0.71927   1.000
    Zr5     Zr   0.87546   0.48755   0.72142   1.000
    Zr6     Zr   0.37335   0.98737   0.78093   1.000
    Zr7     Zr   0.87555   0.98767   0.78070   1.000
    Zr8     Zr   0.20452   0.65456   0.30244   1.000
    Zr9     Zr   0.70501   0.65516   0.30371   1.000
    Zr10    Zr   0.06397   0.87018   0.25784   1.000
    Zr11    Zr   0.56368   0.87020   0.25830   1.000
    Zr12    Zr   0.04443   0.15430   0.19773   1.000
    Zr13    Zr   0.54464   0.15461   0.19778   1.000
    Zr14    Zr   0.18496   0.37041   0.24187   1.000
    Zr15    Zr   0.68679   0.37169   0.24322   1.000
    Zr16    Zr   0.29366   0.34544   0.69752   1.000
    Zr17    Zr   0.79529   0.34528   0.69773   1.000
    Zr18    Zr   0.43408   0.12839   0.74241   1.000
    Zr19    Zr   0.93594   0.12983   0.74214   1.000
    Zr20    Zr   0.45339   0.84552   0.80233   1.000
    Zr21    Zr   0.95365   0.84559   0.80234   1.000
    Zr22    Zr   0.31268   0.62958   0.75760   1.000
    Zr23    Zr   0.81426   0.62934   0.75883   1.000
    Zr24    Zr   0.17305   0.65606   0.36273   1.000
    Zr25    Zr   0.67573   0.65598   0.36400   1.000
    Zr26    Zr   0.20874   0.59677   0.26230   1.000
    Zr27    Zr   0.70768   0.59789   0.26266   1.000
    Zr28    Zr   0.08890   0.88473   0.32225   1.000
    Zr29    Zr   0.59100   0.88463   0.32245   1.000
    Zr30    Zr   0.05751   0.91683   0.20512   1.000
    Zr31    Zr   0.55497   0.91706   0.20573   1.000
    Zr32    Zr   0.07576   0.15586   0.13740   1.000
    Zr33    Zr   0.57766   0.15591   0.13797   1.000
    Zr34    Zr   0.04042   0.09659   0.23770   1.000
    Zr35    Zr   0.53842   0.09689   0.23746   1.000
    Zr36    Zr   0.15984   0.38465   0.17751   1.000
    Zr37    Zr   0.66177   0.38703   0.17907   1.000
    Zr38    Zr   0.19156   0.41730   0.29467   1.000
    Zr39    Zr   0.69371   0.41792   0.29663   1.000
    Zr40    Zr   0.32527   0.34400   0.63727   1.000
    Zr41    Zr   0.82672   0.34393   0.63742   1.000
    Zr42    Zr   0.28918   0.40321   0.73767   1.000
    Zr43    Zr   0.79108   0.40291   0.73809   1.000
    Zr44    Zr   0.40915   0.11258   0.67825   1.000
    Zr45    Zr   0.91073   0.11540   0.67774   1.000
    Zr46    Zr   0.44036   0.08267   0.79591   1.000
    Zr47    Zr   0.94265   0.08307   0.79477   1.000
    Zr48    Zr   0.42198   0.84407   0.86264   1.000
    Zr49    Zr   0.92021   0.84422   0.86201   1.000
    Zr50    Zr   0.45751   0.90319   0.76233   1.000
    Zr51    Zr   0.95957   0.90328   0.76258   1.000
    Zr52    Zr   0.33780   0.61543   0.82205   1.000
    Zr53    Zr   0.83991   0.61538   0.82321   1.000
    Zr54    Zr   0.30621   0.58262   0.70490   1.000
    Zr55    Zr   0.80787   0.58221   0.70622   1.000
    O56     O    0.06009   0.15508   0.16756   1.000
    O57     O    0.56115   0.15526   0.16787   1.000
    O58     O    0.17240   0.37753   0.20969   1.000
    O59     O    0.67428   0.37936   0.21114   1.000
    O60     O    0.04242   0.12544   0.21771   1.000
    O61     O    0.54153   0.12575   0.21762   1.000
    O62     O    0.09094   0.96457   0.21211   1.000
    O63     O    0.06074   0.89350   0.23148   1.000
    O64     O    0.58865   0.96473   0.21252   1.000
    O65     O    0.55932   0.89363   0.23201   1.000
    O66     O    0.08240   0.05445   0.22840   1.000
    O67     O    0.58037   0.05465   0.22839   1.000
    O68     O    0.18826   0.39385   0.26827   1.000
    O69     O    0.69025   0.39480   0.26992   1.000
    O70     O    0.07644   0.87746   0.29004   1.000
    O71     O    0.57734   0.87742   0.29037   1.000
    O72     O    0.16666   0.55459   0.27155   1.000
    O73     O    0.20663   0.62566   0.28237   1.000
    O74     O    0.66691   0.55522   0.27202   1.000
    O75     O    0.70634   0.62652   0.28318   1.000
    O76     O    0.15807   0.46486   0.28774   1.000
    O77     O    0.65993   0.46524   0.28900   1.000
    O78     O    0.18878   0.65531   0.33258   1.000
    O79     O    0.69037   0.65557   0.33385   1.000
    O80     O    0.30946   0.34472   0.66739   1.000
    O81     O    0.81101   0.34460   0.66757   1.000
    O82     O    0.92333   0.12261   0.70994   1.000
    O83     O    0.42161   0.12049   0.71033   1.000
    O84     O    0.29142   0.37432   0.71759   1.000
    O85     O    0.79319   0.37409   0.71791   1.000
    O86     O    0.33973   0.53512   0.71208   1.000
    O87     O    0.30944   0.60610   0.73125   1.000
    O88     O    0.84166   0.53488   0.71382   1.000
    O89     O    0.81107   0.60578   0.73252   1.000
    O90     O    0.33121   0.44541   0.72847   1.000
    O91     O    0.83327   0.44523   0.72975   1.000
    O92     O    0.93929   0.10645   0.76845   1.000
    O93     O    0.43722   0.10553   0.76916   1.000
    O94     O    0.32524   0.62250   0.78982   1.000
    O95     O    0.82708   0.62236   0.79102   1.000
    O96     O    0.41543   0.94528   0.77163   1.000
    O97     O    0.45545   0.87436   0.78233   1.000
    O98     O    0.91756   0.94548   0.77164   1.000
    O99     O    0.95661   0.87444   0.78246   1.000
    O100    O    0.90910   0.03537   0.78773   1.000
    O101    O    0.40685   0.03502   0.78842   1.000
    O102    O    0.43769   0.84479   0.83248   1.000
    O103    O    0.93693   0.84491   0.83217   1.000
    N104    N    0.24982   0.50008   0.50067   1.000
    O105    O    0.41304   0.50435   0.41054   1.000
    O106    O    0.08738   0.49582   0.59140   1.000
    N107    N    0.89961   0.75242   0.65922   1.000
    O108    O    0.84970   0.71040   0.70295   1.000
    O109    O    0.93659   0.78155   0.72249   1.000
    N110    N    0.99860   0.99989   0.49979   1.000
    O111    O    0.15763   0.99110   0.61850   1.000
    O112    O    0.83901   0.00866   0.38134   1.000
    N113    N    0.39942   0.75287   0.65861   1.000
    O114    O    0.43630   0.78177   0.72207   1.000
    O115    O    0.34902   0.71080   0.70209   1.000
    N116    N    0.84872   0.25321   0.84065   1.000
    O117    O    0.89933   0.21114   0.79748   1.000
    O118    O    0.81211   0.28179   0.77750   1.000
    N119    N    0.34820   0.25317   0.84015   1.000
    O120    O    0.31105   0.28186   0.77716   1.000
    O121    O    0.39812   0.21050   0.79701   1.000
    N122    N    0.50025   0.99963   0.49976   1.000
    O123    O    0.65960   0.99118   0.61833   1.000
    O124    O    0.34073   0.00837   0.38128   1.000
    N125    N    0.25023   0.49977   0.00137   1.000
    O126    O    0.09093   0.49121   0.88317   1.000
    O127    O    0.40985   0.50846   0.11958   1.000
    N128    N    0.59968   0.24746   0.34118   1.000
    O129    O    0.65006   0.28989   0.29794   1.000
    O130    O    0.56242   0.21853   0.27783   1.000
    N131    N    0.99802   0.99949   0.00036   1.000
    O132    O    0.16093   0.99539   0.91019   1.000
    O133    O    0.83491   0.00385   0.09030   1.000
    N134    N    0.49956   0.00035   0.99963   1.000
    O135    O    0.66270   0.99611   0.90965   1.000
    O136    O    0.33666   0.00436   0.08981   1.000
    N137    N    0.74926   0.50033   0.99995   1.000
    O138    O    0.58956   0.49166   0.88152   1.000
    O139    O    0.90870   0.50880   0.11848   1.000
    N140    N    0.74928   0.49994   0.50063   1.000
    O141    O    0.91221   0.50414   0.41027   1.000
    O142    O    0.58619   0.49576   0.59051   1.000
    N143    N    0.15081   0.74653   0.15882   1.000
    O144    O    0.10035   0.78873   0.20227   1.000
    O145    O    0.18753   0.71798   0.22228   1.000
    N146    N    0.09897   0.24711   0.34127   1.000
    O147    O    0.14901   0.28917   0.29757   1.000
    O148    O    0.06178   0.21811   0.27793   1.000
    N149    N    0.65108   0.74669   0.15991   1.000
    O150    O    0.60032   0.78882   0.20308   1.000
    O151    O    0.68775   0.71843   0.22348   1.000
loop_
    _geom_bond_atom_site_label_1
    _geom_bond_atom_site_label_2
    _geom_bond_distance
    _geom_bond_site_symmetry_2
    _ccdc_geom_bond_type
    Zr32   O56       0.62257      .   S
    Zr12   O56       0.62257      .   S
    Zr33   O57       0.62273      .   S
    Zr13   O57       0.62273      .   S
    Zr36   O58       0.62147      .   S
    Zr14   O58       0.62147      .   S
    Zr37   O59       0.62173      .   S
    Zr15   O59       0.62173      .   S
    Zr12   O60       0.65164      .   S
    Zr34   O60       0.65164      .   S
    Zr13   O61       0.65181      .   S
    Zr35   O61       0.65181      .   S
    Zr30   O62       0.97862      .   S
    Zr2    O62       0.97862  1_545   S
    Zr30   O63       0.65258      .   S
    Zr10   O63       0.65258      .   S
    Zr31   O64       0.97863      .   S
    Zr3    O64       0.97863  1_545   S
    Zr31   O65       0.65261      .   S
    Zr11   O65       0.65261      .   S
    Zr2    O66       0.97364      .   S
    Zr34   O66       0.97364      .   S
    Zr3    O67       0.97394      .   S
    Zr35   O67       0.97394      .   S
    Zr14   O68       0.65243      .   S
    Zr38   O68       0.65243      .   S
    Zr15   O69       0.65272      .   S
    Zr39   O69       0.65272      .   S
    Zr10   O70       0.62137      .   S
    Zr28   O70       0.62137      .   S
    Zr11   O71       0.62139      .   S
    Zr29   O71       0.62139      .   S
    Zr26   O72       0.97376      .   S
    Zr0    O72       0.97376      .   S
    Zr26   O73       0.65152      .   S
    Zr8    O73       0.65152      .   S
    Zr27   O74       0.97170      .   S
    Zr1    O74       0.97170      .   S
    Zr27   O75       0.65162      .   S
    Zr9    O75       0.65162      .   S
    Zr0    O76       0.97829      .   S
    Zr38   O76       0.97829      .   S
    Zr1    O77       0.97727      .   S
    Zr39   O77       0.97727      .   S
    Zr8    O78       0.62254      .   S
    Zr24   O78       0.62254      .   S
    Zr9    O79       0.61646      .   S
    Zr25   O79       0.61646      .   S
    Zr40   O80       0.62257      .   S
    Zr16   O80       0.62257      .   S
    Zr41   O81       0.62256      .   S
    Zr17   O81       0.62256      .   S
    Zr45   O82       0.62133      .   S
    Zr19   O82       0.62133      .   S
    Zr44   O83       0.62171      .   S
    Zr18   O83       0.62171      .   S
    Zr16   O84       0.65158      .   S
    Zr42   O84       0.65158      .   S
    Zr17   O85       0.65150      .   S
    Zr43   O85       0.65150      .   S
    Zr54   O86       0.97805      .   S
    Zr4    O86       0.97805      .   S
    Zr54   O87       0.65215      .   S
    Zr22   O87       0.65215      .   S
    Zr55   O88       0.97746      .   S
    Zr5    O88       0.97746      .   S
    Zr55   O89       0.65255      .   S
    Zr23   O89       0.65255      .   S
    Zr4    O90       0.97360      .   S
    Zr42   O90       0.97360      .   S
    Zr5    O91       0.97267      .   S
    Zr43   O91       0.97267      .   S
    Zr19   O92       0.65260      .   S
    Zr47   O92       0.65260      .   S
    Zr18   O93       0.65257      .   S
    Zr46   O93       0.65257      .   S
    Zr22   O94       0.62209      .   S
    Zr52   O94       0.62209      .   S
    Zr23   O95       0.62163      .   S
    Zr53   O95       0.62163      .   S
    Zr50   O96       0.97379      .   S
    Zr6    O96       0.97379      .   S
    Zr50   O97       0.65159      .   S
    Zr20   O97       0.65159      .   S
    Zr51   O98       0.97368      .   S
    Zr7    O98       0.97368      .   S
    Zr51   O99       0.65177      .   S
    Zr21   O99       0.65177      .   S
    Zr7    O100      0.97867  1_565   S
    Zr47   O100      0.97867      .   S
    Zr6    O101      0.97836  1_565   S
    Zr46   O101      0.97836      .   S
    Zr20   O102      0.62260      .   S
    Zr48   O102      0.62260      .   S
    Zr21   O103      0.62272      .   S
    Zr49   O103      0.62272      .   S
    N104   O105      2.85883      .   S
    Zr1    O105      3.88254      .   S
    N104   O106      2.85823      .   S
    Zr5    O106      3.88197  1_655   S
    N107   O108      1.34493      .   S
    Zr23   O108      1.90697      .   S
    N107   O109      1.33803      .   S
    Zr21   O109      1.89318      .   S
    N110   O111      2.86733  1_655   S
    Zr6    O111      3.90178      .   S
    N110   O112      2.86857  1_565   S
    Zr3    O112      3.90436      .   S
    N113   O114      1.33919      .   S
    Zr20   O114      1.89589      .   S
    N113   O115      1.34593      .   S
    Zr22   O115      1.90883      .   S
    N116   O117      1.34235      .   S
    Zr19   O117      1.90595      .   S
    N116   O118      1.33479      .   S
    Zr17   O118      1.89195      .   S
    N119   O120      1.33491      .   S
    Zr16   O120      1.89130      .   S
    N119   O121      1.34334      .   S
    Zr18   O121      1.90703      .   S
    N122   O123      2.86775      .   S
    Zr7    O123      3.90285      .   S
    N122   O124      2.86831  1_565   S
    Zr2    O124      3.90389      .   S
    N125   O126      2.86149  1_554   S
    Zr5    O126      3.89029  1_655   S
    N125   O127      2.86432      .   S
    Zr1    O127      3.89773      .   S
    N128   O129      1.34671      .   S
    Zr15   O129      1.91022      .   S
    N128   O130      1.33877      .   S
    Zr13   O130      1.89502      .   S
    N131   O132      2.85594  1_654   S
    Zr6    O132      3.87661      .   S
    N131   O133      2.85529  1_565   S
    Zr3    O133      3.87561      .   S
    N134   O135      2.85611  1_545   S
    Zr7    O135      3.87725      .   S
    N134   O136      2.85570  1_556   S
    Zr2    O136      3.87587      .   S
    N137   O138      2.86800      .   S
    Zr4    O138      3.90366      .   S
    N137   O139      2.86680  1_556   S
    Zr0    O139      3.90110  1_455   S
    N140   O141      2.85860      .   S
    Zr0    O141      3.87929  1_455   S
    N140   O142      2.85432      .   S
    Zr4    O142      3.87553      .   S
    N143   O144      1.34609      .   S
    Zr10   O144      1.90941      .   S
    N143   O145      1.33977      .   S
    Zr8    O145      1.89705      .   S
    N146   O147      1.34613      .   S
    Zr14   O147      1.90949      .   S
    N146   O148      1.33908      .   S
    Zr12   O148      1.89569      .   S
    N149   O150      1.34416      .   S
    Zr11   O150      1.90580      .   S
    N149   O151      1.33935      .   S
    Zr9    O151      1.89634      .   S
