# CIF file generated by openbabel 2.4.90, see http://openbabel.sf.net
data_I
_chemical_name_common ''
_cell_length_a 15.133
_cell_length_b 17.678
_cell_length_c 17.678
_cell_angle_alpha 90
_cell_angle_beta 90
_cell_angle_gamma 90
_space_group_name_H-M_alt 'P 1'
_space_group_name_Hall 'P 1'
loop_
    _symmetry_equiv_pos_as_xyz
    x,y,z
loop_
    _atom_site_label
    _atom_site_type_symbol
    _atom_site_fract_x
    _atom_site_fract_y
    _atom_site_fract_z
    _atom_site_occupancy
    Zn0     Zn   0.98426   0.15145   0.10127   1.000
    Zn1     Zn   0.02864   0.90919   0.15118   1.000
    Zn2     Zn   0.02904   0.10083   0.85828   1.000
    Zn3     Zn   0.47599   0.85887   0.10125   1.000
    Zn4     Zn   0.47635   0.15108   0.90820   1.000
    Zn5     Zn   0.53541   0.90880   0.85832   1.000
    Zn6     Zn   0.53693   0.10121   0.15119   1.000
    Zn7     Zn   0.75839   0.86154   0.86121   1.000
    Zn8     Zn   0.75991   0.14854   0.14817   1.000
    Zn9     Zn   0.25160   0.86192   0.14814   1.000
    Zn10    Zn   0.25198   0.14819   0.86123   1.000
    H11     H    0.78488   0.87504   0.62355   1.000
    H12     H    0.82260   0.89188   0.48750   1.000
    H13     H    0.08377   0.90630   0.54690   1.000
    H14     H    0.04437   0.88610   0.68236   1.000
    H15     H    0.09680   0.84796   0.43285   1.000
    H16     H    0.12592   0.85674   0.29450   1.000
    H17     H    0.90406   0.96763   0.25639   1.000
    H18     H    0.86690   0.96822   0.39340   1.000
    H19     H    0.78537   0.90504   0.01960   1.000
    H20     H    0.74633   0.76721   0.00000   1.000
    H21     H    0.85584   0.74192   0.02112   1.000
    H22     H    0.78291   0.78499   0.08853   1.000
    H23     H    0.78612   0.13499   0.38572   1.000
    H24     H    0.82361   0.11806   0.52181   1.000
    H25     H    0.08487   0.10362   0.46267   1.000
    H26     H    0.04570   0.12389   0.32722   1.000
    H27     H    0.09773   0.16190   0.57680   1.000
    H28     H    0.12657   0.15310   0.71515   1.000
    H29     H    0.90458   0.04232   0.75297   1.000
    H30     H    0.86769   0.04172   0.61582   1.000
    H31     H    0.78570   0.10431   0.98966   1.000
    Zn32    Zn   0.98277   0.85845   0.90818   1.000
    H33     H    0.74762   0.24201   0.00652   1.000
    H34     H    0.85564   0.26759   0.98854   1.000
    H35     H    0.78303   0.22447   0.92091   1.000
    H36     H    0.22618   0.62426   0.13541   1.000
    H37     H    0.18866   0.48817   0.11865   1.000
    H38     H    0.92749   0.54740   0.10337   1.000
    H39     H    0.96667   0.68286   0.12353   1.000
    H40     H    0.91456   0.43292   0.16182   1.000
    H41     H    0.88634   0.29442   0.15320   1.000
    H42     H    0.10884   0.25712   0.04300   1.000
    H43     H    0.14506   0.39441   0.04218   1.000
    H44     H    0.22739   0.01992   0.10386   1.000
    H45     H    0.26544   0.00000   0.24070   1.000
    H46     H    0.15791   0.01999   0.26731   1.000
    H47     H    0.23042   0.08785   0.22445   1.000
    H48     H    0.22625   0.38606   0.87390   1.000
    H49     H    0.18836   0.52208   0.89068   1.000
    H50     H    0.92733   0.46230   0.90588   1.000
    H51     H    0.96690   0.32693   0.88575   1.000
    H52     H    0.91397   0.57669   0.84760   1.000
    H53     H    0.88523   0.71512   0.85629   1.000
    H54     H    0.10775   0.75303   0.96617   1.000
    H55     H    0.14450   0.61586   0.96700   1.000
    H56     H    0.22551   0.99039   0.90599   1.000
    H57     H    0.26641   0.00676   0.76915   1.000
    H58     H    0.15663   0.99003   0.74235   1.000
    H59     H    0.22899   0.92222   0.78550   1.000
    H60     H    0.27786   0.87519   0.38560   1.000
    H61     H    0.31530   0.89189   0.52180   1.000
    H62     H    0.59128   0.90640   0.46277   1.000
    H63     H    0.55215   0.88636   0.32728   1.000
    H64     H    0.60401   0.84781   0.57682   1.000
    H65     H    0.63281   0.85641   0.71520   1.000
    H66     H    0.39624   0.96735   0.75310   1.000
    H67     H    0.35940   0.96815   0.61592   1.000
    H68     H    0.27715   0.90427   0.98964   1.000
    H69     H    0.24002   0.76739   0.00641   1.000
    H70     H    0.34809   0.74131   0.98804   1.000
    H71     H    0.27495   0.78427   0.92074   1.000
    H72     H    0.27841   0.13479   0.62355   1.000
    H73     H    0.31615   0.11805   0.48748   1.000
    H74     H    0.59201   0.10366   0.54696   1.000
    H75     H    0.55259   0.12373   0.68238   1.000
    H76     H    0.60505   0.16211   0.43290   1.000
    H77     H    0.63420   0.15351   0.29462   1.000
    H78     H    0.39770   0.04261   0.25629   1.000
    H79     H    0.36050   0.04185   0.39338   1.000
    H80     H    0.27905   0.10521   0.01952   1.000
    H81     H    0.23962   0.24195   0.00000   1.000
    H82     H    0.34911   0.26845   0.02140   1.000
    H83     H    0.27635   0.22504   0.08880   1.000
    H84     H    0.73297   0.62394   0.87385   1.000
    H85     H    0.69552   0.48784   0.89063   1.000
    H86     H    0.41965   0.54702   0.90620   1.000
    H87     H    0.45878   0.68248   0.88598   1.000
    H88     H    0.40661   0.43253   0.84791   1.000
    H89     H    0.37846   0.29402   0.85657   1.000
    H90     H    0.61601   0.25678   0.96615   1.000
    H91     H    0.65215   0.39408   0.96705   1.000
    H92     H    0.73410   0.01948   0.90578   1.000
    H93     H    0.77240   0.00000   0.76800   1.000
    H94     H    0.66489   0.01965   0.74225   1.000
    H95     H    0.73728   0.08752   0.78525   1.000
    H96     H    0.73428   0.38643   0.13538   1.000
    H97     H    0.69642   0.52244   0.11864   1.000
    H98     H    0.42067   0.46272   0.10364   1.000
    H99     H    0.46020   0.32735   0.12381   1.000
    C100    C    0.66458   0.60610   0.88081   1.000
    C101    C    0.64329   0.53031   0.89117   1.000
    C102    C    0.55475   0.50731   0.89931   1.000
    C103    C    0.48853   0.56320   0.89793   1.000
    H104    H    0.40728   0.57705   0.16174   1.000
    H105    H    0.37844   0.71545   0.15303   1.000
    H106    H    0.61570   0.75346   0.04324   1.000
    H107    H    0.65253   0.61631   0.04243   1.000
    H108    H    0.73340   0.99078   0.10355   1.000
    H109    H    0.77424   0.00719   0.24038   1.000
    H110    H    0.66445   0.99047   0.26717   1.000
    H111    H    0.73681   0.92264   0.22406   1.000
    C112    C    0.91976   0.87863   0.66097   1.000
    C113    C    0.85334   0.88175   0.60580   1.000
    C114    C    0.87479   0.89215   0.53002   1.000
    C115    C    0.96340   0.89996   0.50711   1.000
    C116    C    0.01483   0.89828   0.56307   1.000
    C117    C    0.00000   0.88755   0.63886   1.000
    C118    C    0.98546   0.90672   0.42600   1.000
    C119    C    0.04950   0.87660   0.39625   1.000
    C120    C    0.06570   0.88021   0.31902   1.000
    C121    C    0.94819   0.94222   0.29786   1.000
    C122    C    0.92750   0.94112   0.37434   1.000
    C123    C    0.89677   0.86638   0.74295   1.000
    C124    C    0.83603   0.86268   0.00452   1.000
    C125    C    0.91957   0.88125   0.04940   1.000
    C126    C    0.80330   0.78416   0.02896   1.000
    C127    C    0.92105   0.13139   0.34847   1.000
    C128    C    0.85454   0.12824   0.40356   1.000
    C129    C    0.87586   0.11780   0.47935   1.000
    C130    C    0.96444   0.10997   0.50236   1.000
    C131    C    0.01597   0.11166   0.44648   1.000
    O132    O    0.45305   0.85867   0.22061   1.000
    O133    O    0.30693   0.86569   0.25115   1.000
    O134    O    0.34657   0.86574   0.07429   1.000
    O135    O    0.48583   0.88037   0.99365   1.000
    O136    O    0.40462   0.89312   0.88925   1.000
    C137    C    0.00000   0.12242   0.37066   1.000
    C138    C    0.98635   0.10319   0.58348   1.000
    C139    C    0.05035   0.13327   0.61333   1.000
    C140    C    0.06639   0.12967   0.69059   1.000
    C141    C    0.94880   0.06771   0.71156   1.000
    C142    C    0.92827   0.06880   0.63505   1.000
    C143    C    0.89815   0.14366   0.26648   1.000
    C144    C    0.83619   0.14678   0.00000   1.000
    C145    C    0.91983   0.12853   0.95997   1.000
    C146    C    0.80325   0.22524   0.98052   1.000
    C147    C    0.09130   0.66156   0.13142   1.000
    C148    C    0.15777   0.60644   0.12852   1.000
    C149    C    0.13644   0.53065   0.11816   1.000
    C150    C    0.04788   0.50766   0.11012   1.000
    C151    C    0.99638   0.56357   0.11156   1.000
    C152    C    0.00302   0.63941   0.12226   1.000
    C153    C    0.02615   0.42650   0.10340   1.000
    C154    C    0.96218   0.39647   0.13338   1.000
    C155    C    0.94650   0.31914   0.12993   1.000
    C156    C    0.06436   0.29845   0.06830   1.000
    C157    C    0.08452   0.37503   0.06921   1.000
    C158    C    0.11441   0.74351   0.14360   1.000
    C159    C    0.17700   0.00448   0.14632   1.000
    C160    C    0.09333   0.04953   0.12863   1.000
    C161    C    0.21018   0.02824   0.22489   1.000
    C162    C    0.09145   0.34849   0.87791   1.000
    C163    C    0.15779   0.40374   0.88082   1.000
    C164    C    0.13625   0.47949   0.89115   1.000
    C165    C    0.04762   0.50232   0.89917   1.000
    C166    C    0.99627   0.44628   0.89771   1.000
    C167    C    0.00312   0.37049   0.88702   1.000
    C168    C    0.02562   0.58344   0.90591   1.000
    C169    C    0.96150   0.61327   0.87602   1.000
    C170    C    0.94552   0.69055   0.87952   1.000
    C171    C    0.06338   0.71159   0.94100   1.000
    C172    C    0.08384   0.63506   0.94004   1.000
    C173    C    0.11469   0.26656   0.86576   1.000
    C174    C    0.17524   0.00000   0.86336   1.000
    C175    C    0.09161   0.96055   0.88092   1.000
    C176    C    0.20874   0.98183   0.78492   1.000
    C177    C    0.41281   0.87882   0.34840   1.000
    C178    C    0.34628   0.88190   0.40354   1.000
    C179    C    0.36757   0.89221   0.47935   1.000
    C180    C    0.45613   0.89999   0.50240   1.000
    C181    C    0.52237   0.89839   0.44654   1.000
    C182    C    0.50109   0.88775   0.37070   1.000
    C183    C    0.47800   0.90663   0.58354   1.000
    C184    C    0.55665   0.87643   0.61338   1.000
    C185    C    0.57267   0.87993   0.69064   1.000
    C186    C    0.44044   0.94198   0.71166   1.000
    C187    C    0.41994   0.94100   0.63514   1.000
    C188    C    0.38993   0.86668   0.26644   1.000
    C189    C    0.32790   0.86201   0.00000   1.000
    C190    C    0.41148   0.88072   0.95995   1.000
    C191    C    0.29541   0.78344   0.98029   1.000
    C192    C    0.41329   0.13120   0.66097   1.000
    C193    C    0.34687   0.12810   0.60579   1.000
    C194    C    0.36833   0.11776   0.53001   1.000
    C195    C    0.45695   0.11000   0.50710   1.000
    C196    C    0.52307   0.11164   0.56306   1.000
    C197    C    0.50162   0.12231   0.63887   1.000
    C198    C    0.47903   0.10333   0.42000   1.000
    C199    C    0.55777   0.13351   0.39630   1.000
    C200    C    0.57399   0.13000   0.31906   1.000
    C201    C    0.44181   0.06799   0.29780   1.000
    C202    C    0.42110   0.06899   0.37428   1.000
    C203    C    0.39029   0.14339   0.74295   1.000
    C204    C    0.32960   0.14771   0.00454   1.000
    C205    C    0.41317   0.12917   0.04945   1.000
    C206    C    0.29668   0.22608   0.02922   1.000
    C207    C    0.59809   0.66121   0.87798   1.000
    C208    C    0.50983   0.63904   0.88720   1.000
    C209    C    0.53306   0.42613   0.90607   1.000
    C210    C    0.45433   0.39609   0.87625   1.000
    C211    C    0.43868   0.31876   0.87973   1.000
    C212    C    0.57142   0.29809   0.94107   1.000
    C213    C    0.59154   0.37468   0.94014   1.000
    C214    C    0.62120   0.74315   0.86578   1.000
    C215    C    0.68378   0.00407   0.86325   1.000
    C216    C    0.60009   0.04913   0.88088   1.000
    C217    C    0.71708   0.02790   0.78474   1.000
    C218    C    0.59947   0.34888   0.13153   1.000
    C219    C    0.66581   0.40412   0.12850   1.000
    C220    C    0.64428   0.47987   0.11822   1.000
    C221    C    0.55566   0.50272   0.11025   1.000
    C222    C    0.48961   0.44669   0.11177   1.000
    C223    C    0.51113   0.37090   0.12247   1.000
    C224    C    0.53365   0.58384   0.10350   1.000
    C225    C    0.45480   0.61364   0.13335   1.000
    C226    C    0.43877   0.69092   0.12983   1.000
    C227    C    0.57134   0.71200   0.06840   1.000
    C228    C    0.59185   0.63548   0.06930   1.000
    C229    C    0.62266   0.26694   0.14368   1.000
    C230    C    0.68311   0.00000   0.14615   1.000
    C231    C    0.59950   0.96094   0.12856   1.000
    C232    C    0.71657   0.98225   0.22461   1.000
    N233    N    0.00831   0.91178   0.26998   1.000
    N234    N    0.00888   0.09812   0.73954   1.000
    N235    N    0.00000   0.27030   0.09860   1.000
    N236    N    0.00000   0.73956   0.91075   1.000
    N237    N    0.51518   0.91147   0.73961   1.000
    N238    N    0.51661   0.09848   0.26997   1.000
    N239    N    0.49664   0.26993   0.91088   1.000
    N240    N    0.49645   0.73994   0.09860   1.000
    O241    O    0.95984   0.85833   0.78883   1.000
    O242    O    0.81375   0.86537   0.75818   1.000
    O243    O    0.85335   0.86531   0.93505   1.000
    O244    O    0.99396   0.88092   0.01582   1.000
    O245    O    0.91261   0.89353   0.12017   1.000
    O246    O    0.96126   0.15163   0.22063   1.000
    O247    O    0.81515   0.14479   0.25120   1.000
    O248    O    0.85490   0.14407   0.07436   1.000
    O249    O    0.99420   0.12903   0.99363   1.000
    O250    O    0.91297   0.11635   0.88923   1.000
    O251    O    0.05157   0.78961   0.15154   1.000
    O252    O    0.19748   0.75857   0.14475   1.000
    O253    O    0.15761   0.93617   0.14232   1.000
    O254    O    0.01896   0.01589   0.12939   1.000
    O255    O    0.10027   0.12030   0.11667   1.000
    O256    O    0.05187   0.22041   0.85788   1.000
    O257    O    0.19777   0.25155   0.86460   1.000
    O258    O    0.15803   0.07397   0.86716   1.000
    O259    O    0.01720   0.99412   0.88009   1.000
    O260    O    0.09865   0.88978   0.89286   1.000
    O261    O    0.45337   0.15133   0.78885   1.000
    O262    O    0.30728   0.14447   0.75817   1.000
    O263    O    0.34694   0.14425   0.93506   1.000
    O264    O    0.48755   0.12957   0.01582   1.000
    O265    O    0.40622   0.11684   0.12016   1.000
    O266    O    0.55835   0.78925   0.85790   1.000
    O267    O    0.70426   0.75820   0.86458   1.000
    O268    O    0.66438   0.93577   0.86715   1.000
    O269    O    0.52572   0.01548   0.88009   1.000
    O270    O    0.60703   0.11990   0.89283   1.000
    O271    O    0.55981   0.22082   0.15159   1.000
    O272    O    0.70574   0.25191   0.14480   1.000
    O273    O    0.66589   0.07436   0.14231   1.000
    O274    O    0.52509   0.99451   0.12937   1.000
    O275    O    0.60655   0.89017   0.11663   1.000
loop_
    _geom_bond_atom_site_label_1
    _geom_bond_atom_site_label_2
    _geom_bond_distance
    _geom_bond_site_symmetry_2
    _ccdc_geom_bond_type
    C144   O248      1.34555      .   S
    C144   C145      1.48565  1_554   S
    C144   C146      1.51364  1_554   S
    C144   H31       1.08664  1_554   S
    H81    C206      1.04451      .   S
    H20    C126      1.04656      .   S
    C189   O134      1.34497      .   S
    C189   C190      1.48674  1_554   S
    C189   C191      1.51414  1_554   S
    C189   H68       1.08692  1_554   S
    C124   H19       1.10430      .   S
    C124   C126      1.53577      .   S
    C124   C125      1.52818      .   S
    C124   O243      1.25661  1_554   S
    C204   H80       1.10445      .   S
    C204   C206      1.53567      .   S
    C204   C205      1.52872      .   S
    C204   O263      1.25745  1_554   S
    H69    C191      0.99810  1_554   S
    H33    C146      1.00394  1_554   S
    O264   C205      1.27301      .   S
    O264   Zn4       1.94754  1_554   S
    O244   C125      1.27267      .   S
    O244   Zn32      1.95121  1_554   S
    H21    C126      1.09962      .   S
    H82    C206      1.09981      .   S
    C126   H22       1.09745      .   S
    C206   H83       1.09744      .   S
    H43    C157      1.08859      .   S
    H107   C228      1.08805      .   S
    H42    C156      1.08944      .   S
    H106   C227      1.08876      .   S
    C125   O245      1.27412      .   S
    C205   O265      1.27322      .   S
    C156   C157      1.38786      .   S
    C156   N235      1.21789      .   S
    C227   C228      1.38794      .   S
    C227   N240      1.34663      .   S
    C157   C153      1.40468      .   S
    C228   C224      1.40528      .   S
    O134   Zn9       1.94286      .   S
    O248   Zn8       1.94295      .   S
    N235   Zn0       2.11497  1_455   S
    N235   C155      1.30676  1_455   S
    N240   Zn3       2.12552      .   S
    N240   C226      1.34830      .   S
    Zn3    O275      2.06971      .   S
    Zn3    O132      2.13843      .   S
    Zn3    O135      1.94548  1_554   S
    Zn0    O255      1.85993  1_655   S
    Zn0    O246      2.13858      .   S
    Zn0    O249      1.94953  1_554   S
    H38    C151      1.09067      .   S
    C153   C150      1.47687      .   S
    C153   C154      1.22460  1_455   S
    C224   C221      1.47705      .   S
    C224   C225      1.40700      .   S
    H108   C230      1.08301  1_565   S
    H98    C222      1.09064      .   S
    H44    C159      1.10429      .   S
    C150   C151      1.25892  1_455   S
    C150   C149      1.40755      .   S
    C221   C222      1.40748      .   S
    C221   C220      1.40767      .   S
    C151   C152      1.35768  1_655   S
    C222   C223      1.39179      .   S
    O275   C231      1.27317      .   S
    O255   C160      1.27314      .   S
    C149   H37       1.09028      .   S
    C149   C148      1.39019      .   S
    C220   H97       1.09032      .   S
    C220   C219      1.39020      .   S
    O265   Zn6       2.07114      .   S
    O245   Zn1       1.86015  1_655   S
    C152   H39       0.94504  1_455   S
    C152   C147      1.40157      .   S
    C223   H99       1.08955      .   S
    C223   C218      1.40151      .   S
    C219   C218      1.40163      .   S
    C219   H96       1.08906      .   S
    C148   C147      1.40152      .   S
    C148   H36       1.08888      .   S
    C231   O274      1.27291      .   S
    C231   C230      1.47468  1_565   S
    C160   O254      1.27295      .   S
    C160   C159      1.52824      .   S
    O274   Zn6       1.93371  1_565   S
    O254   Zn1       1.93063  1_545   S
    C226   C225      1.38889      .   S
    C226   H105      1.09077      .   S
    C155   C154      1.38880      .   S
    C155   H41       1.09045      .   S
    C147   C158      1.50574      .   S
    C218   C229      1.50582      .   S
    C225   H104      1.08972      .   S
    C154   H40       1.08968      .   S
    O273   C230      1.34175      .   S
    O273   Zn8       1.93780      .   S
    O253   C159      1.24460  1_565   S
    O253   Zn9       1.93821      .   S
    C158   O252      1.28511      .   S
    C158   O251      1.26033      .   S
    C229   O272      1.28516      .   S
    C229   O271      1.26046      .   S
    O252   Zn9       2.00314      .   S
    O272   Zn8       2.00365      .   S
    C230   C232      1.50952  1_545   S
    C159   C161      1.53548      .   S
    Zn9    O133      2.00542      .   S
    Zn8    O247      2.00508      .   S
    Zn1    O251      2.14223      .   S
    Zn1    N233      2.12307      .   S
    Zn6    O271      2.14248      .   S
    Zn6    N238      2.12274      .   S
    O132   C188      1.26048      .   S
    O246   C143      1.26048      .   S
    H111   C232      1.09742      .   S
    H47    C161      1.09746      .   S
    C232   H109      1.01660  1_565   S
    C232   H110      1.09969      .   S
    C161   H45       1.01323      .   S
    C161   H46       1.09968      .   S
    O133   C188      1.28487      .   S
    O247   C143      1.28499      .   S
    H78    C201      1.08870      .   S
    H17    C121      1.08870      .   S
    C188   C177      1.50507      .   S
    C143   C127      1.50599      .   S
    N238   C201      1.34682      .   S
    N238   C200      1.34820      .   S
    N233   C121      1.16616  1_455   S
    N233   C120      1.34819      .   S
    H16    C120      1.09101      .   S
    H77    C200      1.09073      .   S
    C201   C202      1.38797      .   S
    C121   C122      1.38793      .   S
    C120   C119      1.38858      .   S
    C200   C199      1.38872      .   S
    H26    C137      1.03371      .   S
    H63    C182      1.08948      .   S
    C177   C182      1.40188      .   S
    C177   C178      1.40240      .   S
    C127   C137      1.26741  1_655   S
    C127   C128      1.40162      .   S
    C137   C131      1.37518      .   S
    C182   C181      1.39161      .   S
    C202   H79       1.08864      .   S
    C202   C198      1.33811      .   S
    C122   H18       1.08817      .   S
    C122   C118      1.40464      .   S
    H60    C178      1.08932      .   S
    H23    C128      1.08897      .   S
    C119   C118      1.22448  1_455   S
    C119   H15       1.08965      .   S
    C199   C198      1.37103      .   S
    C199   H76       1.08916      .   S
    C178   C179      1.39036      .   S
    C128   C129      1.39041      .   S
    C198   C195      1.57999      .   S
    C118   C115      1.47704      .   S
    C131   H25       1.09065      .   S
    C131   C130      1.25886  1_455   S
    C181   H62       1.09068      .   S
    C181   C180      1.40741      .   S
    C129   C130      1.40763      .   S
    C129   H24       1.09027      .   S
    C179   C180      1.40759      .   S
    C179   H61       1.09032      .   S
    H73    C194      1.09035      .   S
    H12    C114      1.09028      .   S
    C130   C138      1.47673      .   S
    C180   C183      1.47676      .   S
    C195   C194      1.40764      .   S
    C195   C196      1.40734      .   S
    C115   C114      1.40762      .   S
    C115   C116      1.25908  1_655   S
    C194   C193      1.39050      .   S
    C114   C113      1.39061      .   S
    H13    C116      1.09096      .   S
    H74    C196      1.09062      .   S
    C196   C197      1.39175      .   S
    C116   C117      1.37167      .   S
    H27    C139      1.08959      .   S
    H64    C184      1.08967      .   S
    C138   C139      1.22453  1_655   S
    C138   C142      1.40464      .   S
    C183   C184      1.40704      .   S
    C183   C187      1.40469      .   S
    C193   H72       1.08898      .   S
    C193   C192      1.40167      .   S
    C113   H11       1.08893      .   S
    C113   C112      1.40162      .   S
    C139   C140      1.38867      .   S
    C184   C185      1.38852      .   S
    H30    C142      1.08860      .   S
    H67    C187      1.08865      .   S
    C142   C141      1.38789      .   S
    C187   C186      1.38794      .   S
    C117   C112      1.28532  1_455   S
    C117   H14       1.02119      .   S
    C197   C192      1.40150      .   S
    C197   H75       1.08952      .   S
    C112   C123      1.50608      .   S
    C192   C203      1.50592      .   S
    C140   H28       1.09065      .   S
    C140   N234      1.34814      .   S
    C185   H65       1.09072      .   S
    C185   N237      1.34812      .   S
    C141   N234      1.16628  1_655   S
    C141   H29       1.08867      .   S
    C186   N237      1.34679      .   S
    C186   H66       1.08872      .   S
    N234   Zn2       2.12169      .   S
    N237   Zn5       2.12130      .   S
    H94    C217      1.09968      .   S
    H58    C176      1.09960      .   S
    C123   O242      1.28490      .   S
    C123   O241      1.26060      .   S
    C203   O262      1.28490      .   S
    C203   O261      1.26061      .   S
    O262   Zn10      2.00596      .   S
    O242   Zn7       2.00595      .   S
    H93    C217      1.01568      .   S
    H57    C176      1.01662  1_545   S
    C217   H95       1.09743      .   S
    C217   C215      1.53548      .   S
    C176   H59       1.09743      .   S
    C176   C174      1.51094  1_565   S
    O241   Zn32      2.13821      .   S
    O261   Zn4       2.13834      .   S
    H52    C169      1.08990      .   S
    H88    C210      1.08966      .   S
    H53    C170      1.09076      .   S
    H89    C211      1.09068      .   S
    O256   Zn2       2.14201      .   S
    O256   C173      1.26045      .   S
    O266   Zn5       2.14170      .   S
    O266   C214      1.26030      .   S
    Zn2    O259      1.93373  1_545   S
    Zn2    O250      1.86013  1_455   S
    Zn5    O269      1.93038  1_565   S
    Zn5    O136      2.07197      .   S
    Zn7    O267      2.00298      .   S
    Zn7    O268      1.93821      .   S
    Zn7    O243      1.94248      .   S
    Zn10   O257      2.00386      .   S
    Zn10   O258      1.93759      .   S
    Zn10   O263      1.94247      .   S
    C215   O268      1.24453  1_545   S
    C215   C216      1.52820      .   S
    C215   H92       1.10425      .   S
    C174   O258      1.33496      .   S
    C174   C175      1.47805  1_545   S
    C174   H56       1.08413  1_545   S
    O267   C214      1.28509      .   S
    O257   C173      1.28511      .   S
    C173   C162      1.50579      .   S
    C214   C207      1.50564      .   S
    H84    C100      1.08889      .   S
    H48    C163      1.08905      .   S
    C169   C170      1.38888      .   S
    C169   C168      1.22426  1_655   S
    C210   C211      1.38879      .   S
    C210   C209      1.40692      .   S
    C162   C163      1.40156      .   S
    C162   C167      1.40154      .   S
    C207   C100      1.40148      .   S
    C207   C208      1.40154      .   S
    C170   N236      1.31716  1_655   S
    C211   N239      1.34817      .   S
    O259   C175      1.27287      .   S
    O269   C216      1.27295      .   S
    C100   C101      1.39009      .   S
    C163   C164      1.39028      .   S
    C216   O270      1.27314      .   S
    C175   O260      1.27322      .   S
    H51    C167      0.94547  1_655   S
    H87    C208      1.08955      .   S
    C167   C166      1.35710  1_455   S
    C208   C103      1.39191      .   S
    O250   C145      1.27319      .   S
    O136   C190      1.27315      .   S
    H85    C101      1.09028      .   S
    H49    C164      1.09030      .   S
    C164   C165      1.40766      .   S
    C101   C102      1.40756      .   S
    O270   Zn4       2.07096      .   S
    O260   Zn32      1.85886  1_455   S
    C166   C165      1.25936  1_655   S
    C166   H50       1.09064      .   S
    C103   C102      1.40747      .   S
    C103   H86       1.09069      .   S
    C165   C168      1.47700      .   S
    C102   C209      1.47684      .   S
    C168   C172      1.40468      .   S
    C209   C213      1.40474      .   S
    Zn32   N236      2.11848  1_655   S
    Zn4    N239      2.12383      .   S
    N236   C171      1.20433      .   S
    N239   C212      1.34673      .   S
    H71    C191      1.09740      .   S
    H35    C146      1.09741      .   S
    C172   C171      1.38792      .   S
    C172   H55       1.08861      .   S
    C213   C212      1.38787      .   S
    C213   H91       1.08858      .   S
    C171   H54       1.08877      .   S
    C212   H90       1.08868      .   S
    C190   O135      1.27312      .   S
    C145   O249      1.27304      .   S
    C191   H70       1.09963      .   S
    C146   H34       1.09964      .   S
    O243   Zn32      2.01895      .   S
    O248   Zn0       2.01886      .   S
    O253   Zn1       2.01517      .   S
    O258   Zn2       2.01499      .   S
    O134   Zn3       2.01928      .   S
    O263   Zn4       2.01869      .   S
    O268   Zn5       2.01523      .   S
    O273   Zn6       2.01466      .   S
