# CIF file generated by openbabel 2.4.90, see http://openbabel.sf.net
data_I
_chemical_name_common ''
_cell_length_a 15.133
_cell_length_b 17.678
_cell_length_c 17.678
_cell_angle_alpha 90
_cell_angle_beta 90
_cell_angle_gamma 90
_space_group_name_H-M_alt 'P 1'
_space_group_name_Hall 'P 1'
loop_
    _symmetry_equiv_pos_as_xyz
    x,y,z
loop_
    _atom_site_label
    _atom_site_type_symbol
    _atom_site_fract_x
    _atom_site_fract_y
    _atom_site_fract_z
    _atom_site_occupancy
    Zr0     Zr   0.98277   0.85845   0.90818   1.000
    Zr1     Zr   0.98426   0.15145   0.10127   1.000
    Zr2     Zr   0.02864   0.90919   0.15118   1.000
    Zr3     Zr   0.02904   0.10083   0.85828   1.000
    Zr4     Zr   0.47599   0.85887   0.10125   1.000
    Zr5     Zr   0.47635   0.15108   0.90820   1.000
    Zr6     Zr   0.53541   0.90880   0.85832   1.000
    Zr7     Zr   0.53693   0.10121   0.15119   1.000
    Zr8     Zr   0.75839   0.86154   0.86121   1.000
    Zr9     Zr   0.75991   0.14854   0.14817   1.000
    Zr10    Zr   0.25160   0.86192   0.14814   1.000
    Zr11    Zr   0.25198   0.14819   0.86123   1.000
    N12     N    0.55603   0.50435   0.89440   1.000
    O13     O    0.55145   0.67669   0.87625   1.000
    O14     O    0.52126   0.35743   0.90197   1.000
    O15     O    0.64368   0.65711   0.87865   1.000
    N16     N    0.05378   0.50526   0.89428   1.000
    O17     O    0.04712   0.33294   0.87618   1.000
    O18     O    0.13933   0.35256   0.87860   1.000
    O19     O    0.02258   0.65213   0.90187   1.000
    N20     N    0.84933   0.17284   0.98033   1.000
    O21     O    0.82837   0.15957   0.04580   1.000
    O22     O    0.91017   0.14071   0.92704   1.000
    N23     N    0.95698   0.89508   0.50420   1.000
    O24     O    0.87152   0.87927   0.65695   1.000
    O25     O    0.98772   0.90279   0.35739   1.000
    O26     O    0.96414   0.87674   0.67635   1.000
    N27     N    0.95793   0.11487   0.50526   1.000
    O28     O    0.87273   0.13077   0.35247   1.000
    O29     O    0.98844   0.10717   0.65208   1.000
    O30     O    0.96534   0.13320   0.33310   1.000
    N31     N    0.05408   0.50471   0.11504   1.000
    O32     O    0.02310   0.35780   0.10749   1.000
    O33     O    0.13931   0.65748   0.13074   1.000
    O34     O    0.04709   0.67706   0.13320   1.000
    N35     N    0.55681   0.50565   0.11512   1.000
    O36     O    0.55259   0.33333   0.13325   1.000
    O37     O    0.64482   0.35294   0.13080   1.000
    O38     O    0.52151   0.65253   0.10752   1.000
    N39     N    0.45513   0.89509   0.50529   1.000
    O40     O    0.36720   0.87945   0.35247   1.000
    O41     O    0.45983   0.87693   0.33311   1.000
    O42     O    0.49021   0.90262   0.65213   1.000
    N43     N    0.34120   0.83626   0.98023   1.000
    O44     O    0.32014   0.85005   0.04572   1.000
    O45     O    0.40561   0.86861   0.92701   1.000
    N46     N    0.16270   0.98097   0.83723   1.000
    O47     O    0.10171   0.92754   0.86887   1.000
    O48     O    0.18385   0.04602   0.85071   1.000
    N49     N    0.67068   0.02789   0.83702   1.000
    O50     O    0.60618   0.08169   0.86877   1.000
    O51     O    0.69103   0.96327   0.85060   1.000
    N52     N    0.45600   0.11490   0.50395   1.000
    O53     O    0.46043   0.13305   0.67624   1.000
    O54     O    0.49138   0.10738   0.35726   1.000
    O55     O    0.36782   0.13062   0.65682   1.000
    N56     N    0.67056   0.98133   0.17228   1.000
    O57     O    0.60592   0.92793   0.14061   1.000
    O58     O    0.69173   0.04639   0.15876   1.000
    N59     N    0.84893   0.83670   0.02832   1.000
    O60     O    0.90978   0.86903   0.08200   1.000
    O61     O    0.82740   0.85006   0.96322   1.000
    N62     N    0.34243   0.17343   0.02840   1.000
    O63     O    0.32094   0.15982   0.96327   1.000
    O64     O    0.40700   0.14123   0.08204   1.000
    N65     N    0.16385   0.02824   0.17245   1.000
    O66     O    0.18423   0.96364   0.15884   1.000
    O67     O    0.10306   0.08206   0.14071   1.000
    O68     O    0.11116   0.98542   0.15799   1.000
    O69     O    0.61839   0.02458   0.15790   1.000
    O70     O    0.39461   0.15871   0.98511   1.000
    O71     O    0.39365   0.85111   0.02392   1.000
    O72     O    0.11052   0.02420   0.85159   1.000
    O73     O    0.90107   0.85124   0.98506   1.000
    O74     O    0.61795   0.98505   0.85150   1.000
    O75     O    0.90187   0.15842   0.02398   1.000
loop_
    _geom_bond_atom_site_label_1
    _geom_bond_atom_site_label_2
    _geom_bond_distance
    _geom_bond_site_symmetry_2
    _ccdc_geom_bond_type
    N12    O13       3.06420      .   S
    Zr6    O13       4.12265      .   S
    N12    O14       2.65347      .   S
    Zr5    O14       3.71224      .   S
    N12    O15       3.02151      .   S
    Zr8    O15       4.02107      .   S
    N16    O17       3.06466      .   S
    Zr3    O17       4.12449      .   S
    N16    O18       3.00648      .   S
    Zr11   O18       4.00670      .   S
    N16    O19       2.64244      .   S
    Zr0    O19       3.69850  1_655   S
    N20    O21       1.22269  1_556   S
    Zr9    O21       2.09434      .   S
    N20    O22       1.43442      .   S
    Zr3    O22       2.28276  1_455   S
    N23    O24       3.00693      .   S
    Zr8    O24       4.00849      .   S
    N23    O25       2.64024      .   S
    Zr2    O25       3.69936  1_455   S
    N23    O26       3.06243      .   S
    Zr0    O26       4.12059      .   S
    N27    O28       3.00607      .   S
    Zr9    O28       4.00715      .   S
    N27    O29       2.63987      .   S
    Zr3    O29       3.69826  1_455   S
    N27    O30       3.06260      .   S
    Zr1    O30       4.12098      .   S
    N31    O32       2.64256      .   S
    Zr1    O32       3.69641  1_655   S
    N31    O33       3.00563      .   S
    Zr10   O33       4.00551      .   S
    N31    O34       3.06539      .   S
    Zr2    O34       4.12542      .   S
    N35    O36       3.06370      .   S
    Zr7    O36       4.12240      .   S
    N35    O37       3.02303      .   S
    Zr9    O37       4.02291      .   S
    N35    O38       2.65429      .   S
    Zr4    O38       3.71384      .   S
    N39    O40       3.02420      .   S
    Zr10   O40       4.02536      .   S
    N39    O41       3.06148      .   S
    Zr4    O41       4.11848      .   S
    N39    O42       2.65288      .   S
    Zr6    O42       3.71032      .   S
    N43    O44       1.22534  1_556   S
    Zr10   O44       2.09721      .   S
    N43    O45       1.47043      .   S
    Zr6    O45       2.41608      .   S
    N46    O47       1.43420      .   S
    Zr0    O47       2.28342  1_655   S
    N46    O48       1.21734  1_565   S
    Zr11   O48       2.08798      .   S
    N49    O50       1.47377      .   S
    Zr5    O50       2.41891      .   S
    N49    O51       1.20721  1_545   S
    Zr8    O51       2.07568      .   S
    N52    O53       3.06333      .   S
    Zr5    O53       4.12009      .   S
    N52    O54       2.65111      .   S
    Zr7    O54       3.70918      .   S
    N52    O55       3.02686      .   S
    Zr11   O55       4.02823      .   S
    N56    O57       1.47031      .   S
    Zr4    O57       2.41666      .   S
    N56    O58       1.21759  1_565   S
    Zr9    O58       2.08823      .   S
    N59    O60       1.44052      .   S
    Zr2    O60       2.28811  1_455   S
    N59    O61       1.21906  1_554   S
    Zr8    O61       2.09378      .   S
    N62    O63       1.22026  1_554   S
    Zr11   O63       2.09414      .   S
    N62    O64       1.47583      .   S
    Zr7    O64       2.42089      .   S
    N65    O66       1.20702  1_545   S
    Zr10   O66       2.07576      .   S
    N65    O67       1.43749      .   S
    Zr1    O67       2.28537  1_655   S
    Zr2    O68       1.84115      .   S
    N65    O68       1.12875  1_545   S
    Zr7    O69       1.83549      .   S
    N56    O69       1.12807  1_565   S
    Zr5    O70       1.84297      .   S
    N62    O70       1.13000  1_554   S
    Zr4    O71       1.85483      .   S
    N43    O71       1.13816  1_556   S
    Zr3    O72       1.83551      .   S
    N46    O72       1.12796  1_565   S
    Zr0    O73       1.84176      .   S
    N59    O73       1.12845  1_554   S
    Zr6    O74       1.84172      .   S
    N49    O74       1.12939  1_545   S
    Zr1    O75       1.85381      .   S
    N20    O75       1.13688  1_556   S
