# CIF file generated by openbabel 2.4.90, see http://openbabel.sf.net
data_I
_chemical_name_common ''
_cell_length_a 12.636
_cell_length_b 12.638
_cell_length_c 23.81
_cell_angle_alpha 81.895
_cell_angle_beta 81.878
_cell_angle_gamma 65.765
_space_group_name_H-M_alt 'P 1'
_space_group_name_Hall 'P 1'
loop_
    _symmetry_equiv_pos_as_xyz
    x,y,z
loop_
    _atom_site_label
    _atom_site_type_symbol
    _atom_site_fract_x
    _atom_site_fract_y
    _atom_site_fract_z
    _atom_site_occupancy
    N0      N    0.26155   0.52143   0.64438   1.000
    N1      N    0.75309   0.40288   0.96793   1.000
    N2      N    0.10572   0.89498   0.24986   1.000
    N3      N    0.52352   0.26131   0.14332   1.000
    N4      N    0.89426   0.10499   0.75010   1.000
    N5      N    0.73843   0.47855   0.35557   1.000
    N6      N    0.40291   0.75311   0.46843   1.000
    N7      N    0.24688   0.59709   0.03178   1.000
    N8      N    0.47645   0.73864   0.85657   1.000
    N9      N    0.59707   0.24685   0.53128   1.000
    Zr10    Zr   0.77806   0.63558   0.65014   1.000
    O11     O    0.69938   0.65073   0.71308   1.000
    O12     O    0.92381   0.59093   0.64733   1.000
    O13     O    0.66787   0.68046   0.59605   1.000
    O14     O    0.80646   0.77482   0.67918   1.000
    O15     O    0.72888   0.51942   0.61501   1.000
    Zr16    Zr   0.36292   0.22154   0.85087   1.000
    O17     O    0.40734   0.07596   0.85367   1.000
    O18     O    0.22388   0.19307   0.82159   1.000
    O19     O    0.31846   0.33188   0.90474   1.000
    O20     O    0.34834   0.29961   0.78791   1.000
    O21     O    0.47946   0.27086   0.88550   1.000
    Zr22    Zr   0.63707   0.77841   0.14910   1.000
    O23     O    0.59264   0.92400   0.14628   1.000
    O24     O    0.52051   0.72910   0.11441   1.000
    O25     O    0.77610   0.80688   0.17838   1.000
    O26     O    0.68151   0.66808   0.09517   1.000
    O27     O    0.65164   0.70035   0.21204   1.000
    Zr28    Zr   0.22190   0.36441   0.34983   1.000
    O29     O    0.19351   0.22516   0.32078   1.000
    O30     O    0.07614   0.40908   0.35264   1.000
    O31     O    0.27109   0.48056   0.38489   1.000
    O32     O    0.33209   0.31952   0.40386   1.000
    O33     O    0.30058   0.34925   0.28687   1.000
loop_
    _geom_bond_atom_site_label_1
    _geom_bond_atom_site_label_2
    _geom_bond_distance
    _geom_bond_site_symmetry_2
    _ccdc_geom_bond_type
    Zr10   O11       1.66571      .   S
    N8     O11       4.07712      .   S
    Zr10   O12       1.68454      .   S
    N0     O12       3.98049  1_455   S
    Zr10   O13       1.88974      .   S
    N6     O13       4.56615      .   S
    Zr10   O14       2.15302      .   S
    N4     O14       5.27340  1_545   S
    Zr10   O15       2.11726      .   S
    N9     O15       5.11854      .   S
    Zr16   O17       1.68316      .   S
    N8     O17       3.97719  1_565   S
    Zr16   O18       2.15364      .   S
    N4     O18       5.27528  1_655   S
    Zr16   O19       1.88750      .   S
    N7     O19       4.56053  1_554   S
    Zr16   O20       1.66316      .   S
    N0     O20       4.07122      .   S
    Zr16   O21       2.11622      .   S
    N1     O21       5.11547      .   S
    Zr22   O23       1.68313      .   S
    N3     O23       3.97699  1_545   S
    Zr22   O24       2.11706      .   S
    N7     O24       5.11789      .   S
    Zr22   O25       2.15359      .   S
    N2     O25       5.27519  1_455   S
    Zr22   O26       1.88864      .   S
    N1     O26       4.56387  1_556   S
    Zr22   O27       1.66286      .   S
    N5     O27       4.07097      .   S
    Zr28   O29       2.15310      .   S
    N2     O29       5.27359  1_565   S
    Zr28   O30       1.68450      .   S
    N5     O30       3.98040  1_655   S
    Zr28   O31       2.11633      .   S
    N6     O31       5.11614      .   S
    Zr28   O32       1.88868      .   S
    N9     O32       4.56290      .   S
    Zr28   O33       1.66614      .   S
    N3     O33       4.07834      .   S
