# CIF file generated by openbabel 2.4.90, see http://openbabel.sf.net
data_I
_chemical_name_common ''
_cell_length_a 12.636
_cell_length_b 12.638
_cell_length_c 23.81
_cell_angle_alpha 81.895
_cell_angle_beta 81.878
_cell_angle_gamma 65.765
_space_group_name_H-M_alt 'P 1'
_space_group_name_Hall 'P 1'
loop_
    _symmetry_equiv_pos_as_xyz
    x,y,z
loop_
    _atom_site_label
    _atom_site_type_symbol
    _atom_site_fract_x
    _atom_site_fract_y
    _atom_site_fract_z
    _atom_site_occupancy
    Zr0     Zr   0.36292   0.22155   0.85087   1.000
    Zr1     Zr   0.77806   0.63558   0.65014   1.000
    Zr2     Zr   0.63707   0.77841   0.14910   1.000
    Zr3     Zr   0.22190   0.36441   0.34983   1.000
    N4      N    0.26155   0.52143   0.64438   1.000
    O5      O    0.33376   0.37768   0.72496   1.000
    O6      O    0.06957   0.54627   0.64451   1.000
    N7      N    0.75309   0.40288   0.96793   1.000
    O8      O    0.72596   0.55775   0.04123   1.000
    O9      O    0.59601   0.32017   0.92012   1.000
    N10     N    0.10572   0.89498   0.24986   1.000
    O11     O    0.91514   0.83536   0.20766   1.000
    O12     O    0.16511   0.08591   0.29173   1.000
    N13     N    0.52352   0.26131   0.14332   1.000
    O14     O    0.37926   0.33408   0.22390   1.000
    O15     O    0.54821   0.06959   0.14346   1.000
    N16     N    0.89426   0.10499   0.75010   1.000
    O17     O    0.08484   0.16460   0.79230   1.000
    O18     O    0.83486   0.91407   0.70823   1.000
    N19     N    0.73843   0.47855   0.35557   1.000
    O20     O    0.66622   0.62229   0.27498   1.000
    O21     O    0.93039   0.45374   0.35545   1.000
    N22     N    0.40291   0.75311   0.46843   1.000
    O23     O    0.55769   0.72534   0.54196   1.000
    O24     O    0.32028   0.59670   0.41995   1.000
    N25     N    0.24688   0.59709   0.03178   1.000
    O26     O    0.27401   0.44222   0.95860   1.000
    O27     O    0.40396   0.67979   0.07971   1.000
    N28     N    0.47645   0.73864   0.85657   1.000
    O29     O    0.45177   0.93037   0.85647   1.000
    O30     O    0.62071   0.66588   0.77603   1.000
    N31     N    0.59707   0.24685   0.53128   1.000
    O32     O    0.44229   0.27463   0.45788   1.000
    O33     O    0.67969   0.40327   0.57988   1.000
loop_
    _geom_bond_atom_site_label_1
    _geom_bond_atom_site_label_2
    _geom_bond_distance
    _geom_bond_site_symmetry_2
    _ccdc_geom_bond_type
    N4     O5        2.44233      .   S
    Zr0    O5        3.32632      .   S
    N4     O6        2.31428      .   S
    Zr1    O6        3.36908  1_655   S
    N7     O8        2.69028  1_556   S
    Zr2    O8        3.77727      .   S
    N7     O9        3.00087      .   S
    Zr0    O9        4.23244      .   S
    N10    O11       3.12464  1_455   S
    Zr2    O11       4.30718      .   S
    N10    O12       3.12349  1_565   S
    Zr3    O12       4.30621      .   S
    N13    O14       2.44604      .   S
    Zr3    O14       3.33229      .   S
    N13    O15       2.31206      .   S
    Zr2    O15       3.36627  1_565   S
    N16    O17       3.12468  1_655   S
    Zr0    O17       4.30728      .   S
    N16    O18       3.12337  1_545   S
    Zr1    O18       4.30605      .   S
    N19    O20       2.44235      .   S
    Zr2    O20       3.32572      .   S
    N19    O21       2.31429      .   S
    Zr3    O21       3.36900  1_455   S
    N22    O23       2.69147      .   S
    Zr1    O23       3.77947      .   S
    N22    O24       3.00145      .   S
    Zr3    O24       4.23266      .   S
    N25    O26       2.68809  1_554   S
    Zr0    O26       3.77499      .   S
    N25    O27       3.00245      .   S
    Zr2    O27       4.23413      .   S
    N28    O29       2.31223      .   S
    Zr0    O29       3.36632  1_545   S
    N28    O30       2.44527      .   S
    Zr1    O30       3.33143      .   S
    N31    O32       2.68930      .   S
    Zr3    O32       3.77736      .   S
    N31    O33       3.00292      .   S
    Zr1    O33       4.23451      .   S
