# CIF file generated by openbabel 2.4.90, see http://openbabel.sf.net
data_I
_chemical_name_common ''
_cell_length_a 14.039
_cell_length_b 17.601
_cell_length_c 19.954
_cell_angle_alpha 102.064
_cell_angle_beta 104.579
_cell_angle_gamma 83.83
_space_group_name_H-M_alt 'P 1'
_space_group_name_Hall 'P 1'
loop_
    _symmetry_equiv_pos_as_xyz
    x,y,z
loop_
    _atom_site_label
    _atom_site_type_symbol
    _atom_site_fract_x
    _atom_site_fract_y
    _atom_site_fract_z
    _atom_site_occupancy
    Cd0     Cd   0.38456   0.26500   0.81584   1.000
    Cd1     Cd   0.38456   0.76501   0.31584   1.000
    Cd2     Cd   0.38456   0.76500   0.81584   1.000
    Cd3     Cd   0.88451   0.26507   0.31578   1.000
    Cd4     Cd   0.88451   0.26507   0.81578   1.000
    Cd5     Cd   0.88452   0.76507   0.31577   1.000
    Cd6     Cd   0.88451   0.76507   0.81577   1.000
    Cd7     Cd   0.11580   0.23508   0.18348   1.000
    Cd8     Cd   0.11580   0.23508   0.68348   1.000
    Cd9     Cd   0.11580   0.73508   0.18348   1.000
    Cd10    Cd   0.11580   0.73508   0.68348   1.000
    Cd11    Cd   0.61607   0.23504   0.18349   1.000
    Cd12    Cd   0.61606   0.23504   0.68340   1.000
    Cd13    Cd   0.61606   0.73504   0.18348   1.000
    Cd14    Cd   0.61606   0.73504   0.68348   1.000
    Cd15    Cd   0.25018   0.99998   0.24967   1.000
    Cd16    Cd   0.25018   0.99998   0.74968   1.000
    Cd17    Cd   0.25018   0.49998   0.24968   1.000
    Cd18    Cd   0.25018   0.49997   0.74968   1.000
    Cd19    Cd   0.75098   0.99986   0.24977   1.000
    Cd20    Cd   0.75097   0.99986   0.74977   1.000
    Cd21    Cd   0.75098   0.49986   0.24976   1.000
    Cd22    Cd   0.75097   0.49985   0.74976   1.000
    H23     H    0.09211   0.28056   0.46620   1.000
    H24     H    0.09210   0.28056   0.96620   1.000
    H25     H    0.09209   0.78056   0.46619   1.000
    H26     H    0.09209   0.78055   0.96619   1.000
    H27     H    0.59281   0.28073   0.46663   1.000
    H28     H    0.59281   0.28073   0.96663   1.000
    H29     H    0.59280   0.78073   0.46660   1.000
    H30     H    0.59279   0.78073   0.96663   1.000
    H31     H    0.32337   0.42410   0.09695   1.000
    Cd32    Cd   0.38456   0.26501   0.31584   1.000
    H33     H    0.32337   0.42410   0.59695   1.000
    H34     H    0.32335   0.92411   0.09695   1.000
    H35     H    0.32336   0.92410   0.59695   1.000
    H36     H    0.82458   0.42410   0.09680   1.000
    H37     H    0.82458   0.42410   0.59681   1.000
    H38     H    0.82458   0.92410   0.09682   1.000
    H39     H    0.82457   0.92409   0.59681   1.000
    H40     H    0.36202   0.45258   0.49050   1.000
    H41     H    0.36202   0.45257   0.99052   1.000
    H42     H    0.36201   0.95257   0.49053   1.000
    H43     H    0.36200   0.95258   0.99050   1.000
    H44     H    0.86252   0.45267   0.49013   1.000
    H45     H    0.86252   0.45266   0.99010   1.000
    H46     H    0.86253   0.95265   0.49013   1.000
    H47     H    0.86252   0.95265   0.99013   1.000
    H48     H    0.40872   0.21944   0.03330   1.000
    H49     H    0.40873   0.21944   0.53331   1.000
    H50     H    0.40872   0.71945   0.03330   1.000
    H51     H    0.40872   0.71945   0.53331   1.000
    H52     H    0.90868   0.21950   0.03328   1.000
    H53     H    0.90868   0.21950   0.53329   1.000
    H54     H    0.90867   0.71950   0.03328   1.000
    H55     H    0.90867   0.71950   0.53328   1.000
    H56     H    0.17752   0.07596   0.40241   1.000
    H57     H    0.17751   0.07596   0.90240   1.000
    H58     H    0.17753   0.57596   0.40240   1.000
    H59     H    0.17753   0.57596   0.90240   1.000
    H60     H    0.67762   0.07592   0.40230   1.000
    H61     H    0.67761   0.07592   0.90229   1.000
    H62     H    0.67761   0.57592   0.40229   1.000
    H63     H    0.67761   0.57592   0.90220   1.000
    H64     H    0.13871   0.04741   0.00877   1.000
    H65     H    0.13871   0.04740   0.50877   1.000
    H66     H    0.13872   0.54740   0.00877   1.000
    H67     H    0.13871   0.54740   0.50877   1.000
    H68     H    0.63874   0.04733   0.00864   1.000
    H69     H    0.63874   0.04732   0.50864   1.000
    H70     H    0.63873   0.54733   0.00863   1.000
    H71     H    0.63873   0.54733   0.50863   1.000
    C72     C    0.24635   0.38532   0.41802   1.000
    C73     C    0.24635   0.38532   0.91802   1.000
    C74     C    0.24635   0.88532   0.41802   1.000
    C75     C    0.24634   0.88532   0.91800   1.000
    C76     C    0.74665   0.38537   0.41793   1.000
    C77     C    0.74664   0.38536   0.91793   1.000
    C78     C    0.74665   0.88536   0.41793   1.000
    C79     C    0.74665   0.88536   0.91793   1.000
    C80     C    0.17197   0.33430   0.41122   1.000
    C81     C    0.17196   0.33430   0.91122   1.000
    C82     C    0.17196   0.83430   0.41122   1.000
    C83     C    0.17196   0.83430   0.91122   1.000
    C84     C    0.67230   0.33440   0.41134   1.000
    C85     C    0.67229   0.33439   0.91134   1.000
    C86     C    0.67230   0.83439   0.41134   1.000
    C87     C    0.67229   0.83439   0.91134   1.000
    C88     C    0.14892   0.32036   0.47145   1.000
    C89     C    0.14891   0.32036   0.97145   1.000
    C90     C    0.14890   0.82036   0.47144   1.000
    C91     C    0.14890   0.82036   0.97144   1.000
    C92     C    0.64963   0.32046   0.47170   1.000
    C93     C    0.64962   0.32046   0.97170   1.000
    C94     C    0.64961   0.82047   0.47169   1.000
    C95     C    0.64961   0.82046   0.97100   1.000
    C96     C    0.20076   0.35491   0.03889   1.000
    C97     C    0.20076   0.35490   0.53880   1.000
    C98     C    0.20075   0.85491   0.03888   1.000
    C99     C    0.20075   0.85490   0.53888   1.000
    C100    C    0.73906   0.58687   0.64385   1.000
    C101    C    0.37264   0.21179   0.15906   1.000
    C102    C    0.37264   0.21179   0.65906   1.000
    C103    C    0.37264   0.71179   0.15906   1.000
    C104    C    0.70186   0.35496   0.03902   1.000
    C105    C    0.70186   0.35496   0.53902   1.000
    C106    C    0.70185   0.85496   0.03902   1.000
    C107    C    0.70185   0.85496   0.53902   1.000
    C108    C    0.28003   0.39976   0.04501   1.000
    C109    C    0.28003   0.39976   0.54501   1.000
    C110    C    0.28002   0.89976   0.04501   1.000
    C111    C    0.28002   0.89975   0.54501   1.000
    C112    C    0.78105   0.39980   0.04493   1.000
    C113    C    0.78105   0.39980   0.54493   1.000
    C114    C    0.78105   0.89980   0.04493   1.000
    C115    C    0.78105   0.89979   0.54493   1.000
    C116    C    0.30238   0.41522   0.48500   1.000
    C117    C    0.30238   0.41522   0.98000   1.000
    C118    C    0.30237   0.91522   0.48500   1.000
    C119    C    0.30236   0.91522   0.98499   1.000
    C120    C    0.80297   0.41530   0.48480   1.000
    C121    C    0.80297   0.41530   0.98480   1.000
    C122    C    0.80297   0.91529   0.48480   1.000
    C123    C    0.80297   0.91529   0.98480   1.000
    C124    C    0.26117   0.41323   0.35530   1.000
    C125    C    0.26117   0.41323   0.85530   1.000
    C126    C    0.26117   0.91322   0.35530   1.000
    C127    C    0.26116   0.91322   0.85530   1.000
    C128    C    0.76122   0.41327   0.35516   1.000
    C129    C    0.76121   0.41326   0.85516   1.000
    C130    C    0.76122   0.91326   0.35510   1.000
    C131    C    0.76121   0.91326   0.85516   1.000
    O132    O    0.20457   0.38018   0.16374   1.000
    O133    O    0.20456   0.38018   0.66374   1.000
    O134    O    0.20456   0.88017   0.16374   1.000
    O135    O    0.20456   0.88017   0.66374   1.000
    O136    O    0.70778   0.37992   0.16405   1.000
    C137    C    0.12784   0.28823   0.34040   1.000
    C138    C    0.12784   0.28823   0.84040   1.000
    C139    C    0.12784   0.78823   0.34040   1.000
    C140    C    0.12784   0.78823   0.84040   1.000
    C141    C    0.62793   0.28826   0.34060   1.000
    C142    C    0.62792   0.28826   0.84060   1.000
    C143    C    0.62793   0.78826   0.34060   1.000
    C144    C    0.62792   0.78826   0.84060   1.000
    C145    C    0.17445   0.33933   0.10320   1.000
    C146    C    0.17445   0.33933   0.60319   1.000
    C147    C    0.17444   0.83933   0.10319   1.000
    C148    C    0.17444   0.83933   0.60319   1.000
    C149    C    0.67613   0.33949   0.10355   1.000
    C150    C    0.67613   0.33949   0.60355   1.000
    C151    C    0.67611   0.83950   0.10355   1.000
    C152    C    0.67610   0.83949   0.60355   1.000
    C153    C    0.25427   0.11470   0.08133   1.000
    C154    C    0.25427   0.11470   0.58133   1.000
    C155    C    0.25428   0.61470   0.08133   1.000
    C156    C    0.25427   0.61470   0.58133   1.000
    C157    C    0.75421   0.11470   0.08122   1.000
    C158    C    0.75421   0.11470   0.58122   1.000
    C159    C    0.75421   0.61471   0.08120   1.000
    C160    C    0.75420   0.61470   0.58121   1.000
    C161    C    0.32875   0.16567   0.08822   1.000
    C162    C    0.32875   0.16567   0.58822   1.000
    C163    C    0.32875   0.66568   0.08822   1.000
    C164    C    0.32874   0.66567   0.58822   1.000
    C165    C    0.82865   0.16571   0.08815   1.000
    C166    C    0.82865   0.16571   0.58815   1.000
    C167    C    0.82864   0.66572   0.08814   1.000
    C168    C    0.82864   0.66571   0.58814   1.000
    C169    C    0.35188   0.17966   0.02803   1.000
    C170    C    0.35188   0.17965   0.52803   1.000
    C171    C    0.35188   0.67966   0.02803   1.000
    C172    C    0.35188   0.67966   0.52803   1.000
    C173    C    0.85185   0.17969   0.02798   1.000
    C174    C    0.85185   0.17969   0.52790   1.000
    C175    C    0.85184   0.67969   0.02790   1.000
    C176    C    0.85184   0.67969   0.52790   1.000
    C177    C    0.30006   0.14513   0.46059   1.000
    C178    C    0.30005   0.14513   0.96059   1.000
    C179    C    0.30006   0.64513   0.46059   1.000
    C180    C    0.30006   0.64513   0.96050   1.000
    C181    C    0.80007   0.14515   0.46053   1.000
    C182    C    0.80007   0.14515   0.96053   1.000
    C183    C    0.80006   0.64515   0.46052   1.000
    C184    C    0.80006   0.64515   0.96052   1.000
    C185    C    0.22077   0.10027   0.45438   1.000
    C186    C    0.22077   0.10027   0.95438   1.000
    C187    C    0.22077   0.60027   0.45438   1.000
    C188    C    0.22078   0.60027   0.95430   1.000
    C189    C    0.72082   0.10024   0.45428   1.000
    C190    C    0.72082   0.10024   0.95428   1.000
    C191    C    0.72081   0.60024   0.45427   1.000
    C192    C    0.72081   0.60024   0.95427   1.000
    C193    C    0.19835   0.08476   0.01430   1.000
    C194    C    0.19836   0.08475   0.51433   1.000
    C195    C    0.19836   0.58476   0.01433   1.000
    C196    C    0.19836   0.58475   0.51433   1.000
    C197    C    0.69835   0.08473   0.01422   1.000
    C198    C    0.69835   0.08472   0.51422   1.000
    C199    C    0.69834   0.58473   0.01421   1.000
    C200    C    0.69834   0.58473   0.51421   1.000
    C201    C    0.23911   0.08684   0.14395   1.000
    C202    C    0.23911   0.08684   0.64395   1.000
    C203    C    0.23911   0.58684   0.14395   1.000
    C204    C    0.23911   0.58684   0.64394   1.000
    C205    C    0.73908   0.08687   0.14385   1.000
    C206    C    0.73908   0.08686   0.64386   1.000
    C207    C    0.73907   0.58687   0.14385   1.000
    C208    C    0.37263   0.71179   0.65906   1.000
    C209    C    0.87252   0.21180   0.15901   1.000
    C210    C    0.87251   0.21179   0.65901   1.000
    C211    C    0.87252   0.71179   0.15900   1.000
    C212    C    0.87251   0.71179   0.65900   1.000
    C213    C    0.32610   0.16076   0.39624   1.000
    C214    C    0.32610   0.16076   0.89620   1.000
    C215    C    0.32610   0.66076   0.39624   1.000
    C216    C    0.32610   0.66076   0.89623   1.000
    C217    C    0.82617   0.16077   0.39620   1.000
    C218    C    0.82617   0.16076   0.89619   1.000
    C219    C    0.82617   0.66076   0.39619   1.000
    C220    C    0.82617   0.66076   0.89619   1.000
    O221    O    0.34116   0.39688   0.33418   1.000
    O222    O    0.34116   0.39688   0.83418   1.000
    O223    O    0.34117   0.89688   0.33418   1.000
    O224    O    0.34116   0.89688   0.83410   1.000
    O225    O    0.84122   0.39696   0.33402   1.000
    O226    O    0.84121   0.39696   0.83402   1.000
    O227    O    0.84122   0.89696   0.33402   1.000
    O228    O    0.84122   0.89695   0.83402   1.000
    O229    O    0.19260   0.45926   0.32818   1.000
    O230    O    0.19260   0.45926   0.82810   1.000
    O231    O    0.19260   0.95925   0.32817   1.000
    O232    O    0.19259   0.95925   0.82817   1.000
    O233    O    0.69264   0.45927   0.32804   1.000
    O234    O    0.69263   0.45927   0.82804   1.000
    O235    O    0.69264   0.95926   0.32800   1.000
    O236    O    0.69263   0.95926   0.82804   1.000
    O237    O    0.17965   0.28340   0.29437   1.000
    O238    O    0.17965   0.28340   0.79437   1.000
    O239    O    0.17966   0.78340   0.29437   1.000
    O240    O    0.17965   0.78339   0.79437   1.000
    O241    O    0.67952   0.28341   0.29440   1.000
    O242    O    0.67951   0.28340   0.79440   1.000
    O243    O    0.67952   0.78340   0.29442   1.000
    O244    O    0.67952   0.78340   0.79442   1.000
    O245    O    0.04998   0.25312   0.32830   1.000
    O246    O    0.04998   0.25311   0.82839   1.000
    O247    O    0.04998   0.75311   0.32837   1.000
    O248    O    0.04998   0.75311   0.82837   1.000
    O249    O    0.55011   0.25317   0.32885   1.000
    O250    O    0.55011   0.25317   0.82885   1.000
    O251    O    0.55011   0.75317   0.32884   1.000
    O252    O    0.55011   0.75317   0.82884   1.000
    O253    O    0.12154   0.28028   0.09104   1.000
    O254    O    0.12153   0.28028   0.59104   1.000
    O255    O    0.12152   0.78028   0.09103   1.000
    O256    O    0.12153   0.78028   0.59103   1.000
    O257    O    0.62222   0.28106   0.09157   1.000
    O258    O    0.62223   0.28105   0.59157   1.000
    O259    O    0.62218   0.78108   0.09157   1.000
    O260    O    0.62218   0.78108   0.59156   1.000
    O261    O    0.70778   0.37992   0.66405   1.000
    O262    O    0.70778   0.87991   0.16405   1.000
    O263    O    0.70778   0.87991   0.66405   1.000
    O264    O    0.15886   0.10316   0.16469   1.000
    O265    O    0.15886   0.10316   0.66400   1.000
    O266    O    0.15886   0.60316   0.16469   1.000
    O267    O    0.15885   0.60316   0.66469   1.000
    O268    O    0.65881   0.10315   0.16458   1.000
    O269    O    0.65880   0.10314   0.66458   1.000
    O270    O    0.65880   0.60315   0.16457   1.000
    O271    O    0.65879   0.60315   0.66457   1.000
    O272    O    0.30761   0.04090   0.17129   1.000
    O273    O    0.30761   0.04090   0.67129   1.000
    O274    O    0.30761   0.54090   0.17129   1.000
    O275    O    0.30760   0.54090   0.67129   1.000
    O276    O    0.80768   0.04102   0.17122   1.000
    O277    O    0.80767   0.04102   0.67122   1.000
    O278    O    0.80767   0.54103   0.17121   1.000
    O279    O    0.80766   0.54102   0.67121   1.000
    O280    O    0.32066   0.21661   0.20499   1.000
    O281    O    0.32065   0.21660   0.70499   1.000
    O282    O    0.32066   0.71661   0.20499   1.000
    O283    O    0.32065   0.71660   0.70499   1.000
    O284    O    0.82060   0.21652   0.20497   1.000
    O285    O    0.82060   0.21652   0.70497   1.000
    O286    O    0.82060   0.71652   0.20496   1.000
    O287    O    0.82060   0.71652   0.70496   1.000
    O288    O    0.45054   0.24691   0.17123   1.000
    O289    O    0.45054   0.24691   0.67123   1.000
    O290    O    0.45054   0.74691   0.17123   1.000
    O291    O    0.45053   0.74691   0.67123   1.000
    O292    O    0.95035   0.24698   0.17116   1.000
    O293    O    0.95035   0.24697   0.67116   1.000
    O294    O    0.95035   0.74698   0.17114   1.000
    O295    O    0.95035   0.74697   0.67114   1.000
    O296    O    0.37896   0.21983   0.40830   1.000
    O297    O    0.37896   0.21982   0.90831   1.000
    O298    O    0.37897   0.71982   0.40831   1.000
    O299    O    0.37897   0.71982   0.90831   1.000
    O300    O    0.87899   0.21986   0.40827   1.000
    O301    O    0.87899   0.21985   0.90827   1.000
    O302    O    0.87899   0.71985   0.40826   1.000
    O303    O    0.87899   0.71985   0.90826   1.000
    O304    O    0.29574   0.11989   0.33574   1.000
    O305    O    0.29574   0.11989   0.83574   1.000
    O306    O    0.29574   0.61989   0.33574   1.000
    O307    O    0.29574   0.61988   0.83574   1.000
    O308    O    0.79583   0.11988   0.33570   1.000
    O309    O    0.79583   0.11988   0.83570   1.000
    O310    O    0.79583   0.61988   0.33570   1.000
    O311    O    0.79583   0.61987   0.83500   1.000
loop_
    _geom_bond_atom_site_label_1
    _geom_bond_atom_site_label_2
    _geom_bond_distance
    _geom_bond_site_symmetry_2
    _ccdc_geom_bond_type
    H70    C199      1.08947      .   S
    H68    C197      1.08947      .   S
    H64    C193      1.08958      .   S
    H66    C195      1.08945      .   S
    C199   C159      1.39520      .   S
    C199   C192      1.39619  1_554   S
    C197   C157      1.39534      .   S
    C197   C190      1.39620  1_554   S
    C193   C153      1.39594      .   S
    C193   C186      1.39547  1_554   S
    C195   C155      1.39549      .   S
    C195   C188      1.39757  1_554   S
    C175   H54       1.08841      .   S
    C175   C167      1.39623      .   S
    C175   C184      1.40252  1_554   S
    C173   H52       1.08876      .   S
    C173   C165      1.39488      .   S
    C173   C182      1.40355  1_554   S
    C171   H50       1.08877      .   S
    C171   C163      1.39488      .   S
    C171   C180      1.40487  1_554   S
    C169   H48       1.08876      .   S
    C169   C161      1.39486      .   S
    C169   C178      1.40354  1_554   S
    C98    C110      1.39882      .   S
    C98    C147      1.50523      .   S
    C98    C91       1.40372  1_554   S
    C96    C108      1.39885      .   S
    C96    C145      1.50523      .   S
    C96    C89       1.40373  1_554   S
    C104   C112      1.39879      .   S
    C104   C149      1.50482      .   S
    C104   C93       1.40349  1_554   S
    C106   C114      1.39879      .   S
    C106   C151      1.50484      .   S
    C106   C95       1.41379  1_554   S
    C112   H36       1.08646      .   S
    C112   C121      1.39619  1_554   S
    C114   H38       1.08674      .   S
    C114   C123      1.39621  1_554   S
    C110   H34       1.08667      .   S
    C110   C119      1.39662  1_554   S
    C108   H31       1.08670      .   S
    C108   C117      1.49196  1_554   S
    C159   C167      1.41213      .   S
    C159   C207      1.50341      .   S
    C157   C165      1.41220      .   S
    C157   C205      1.50300      .   S
    C155   C163      1.41229      .   S
    C155   C203      1.50318      .   S
    C153   C161      1.41230      .   S
    C153   C201      1.50318      .   S
    C167   C211      1.49197      .   S
    C165   C209      1.49198      .   S
    C163   C103      1.49200      .   S
    C161   C101      1.49201      .   S
    O255   C147      1.28871      .   S
    O255   Cd9       2.17814      .   S
    O253   C145      1.28871      .   S
    O253   Cd7       2.17802      .   S
    O259   C151      1.28881      .   S
    O259   Cd13      2.17777      .   S
    O257   C149      1.28880      .   S
    O257   Cd11      2.17797      .   S
    C147   O134      1.26508      .   S
    C145   O132      1.26494      .   S
    C149   O136      1.26491      .   S
    C151   O262      1.26487      .   S
    C205   O268      1.28018      .   S
    C205   O276      1.27640      .   S
    C207   O270      1.28008      .   S
    C207   O278      1.27633      .   S
    C201   O264      1.28008      .   S
    C201   O272      1.27648      .   S
    C203   O266      1.28012      .   S
    C203   O274      1.27648      .   S
    C211   O294      1.25927      .   S
    C211   O286      1.29251      .   S
    C209   O292      1.25925      .   S
    C209   O284      1.29255      .   S
    C101   O288      1.25937      .   S
    C101   O280      1.29252      .   S
    C103   O290      1.25937      .   S
    C103   O282      1.29252      .   S
    O134   Cd15      2.45425      .   S
    O132   Cd17      2.45416      .   S
    O136   Cd21      2.44806      .   S
    O262   Cd19      2.44832      .   S
    O270   Cd13      2.31081      .   S
    O268   Cd11      2.31079      .   S
    O266   Cd9       2.31206      .   S
    O264   Cd7       2.31206      .   S
    O294   Cd9       2.26468  1_655   S
    O292   Cd7       2.26468  1_655   S
    O278   Cd21      2.20045      .   S
    O276   Cd19      2.20045  1_545   S
    O288   Cd11      2.26597      .   S
    O290   Cd13      2.26597      .   S
    O272   Cd15      2.20123  1_545   S
    O274   Cd17      2.20137      .   S
    Cd13   O243      2.19115      .   S
    Cd9    O239      2.19126      .   S
    Cd7    O237      2.19125      .   S
    Cd11   O241      2.19066      .   S
    O286   Cd5       2.19099      .   S
    O284   Cd3       2.19099      .   S
    O282   Cd1       2.19106      .   S
    O280   Cd32      2.19104      .   S
    Cd15   O231      2.20281      .   S
    Cd15   O304      2.45662  1_565   S
    Cd17   O229      2.20270      .   S
    Cd17   O306      2.45654      .   S
    Cd21   O233      2.20392      .   S
    Cd21   O310      2.45517      .   S
    Cd19   O235      2.20320      .   S
    Cd19   O308      2.45507  1_565   S
    O237   C137      1.29238      .   S
    O239   C139      1.29246      .   S
    O241   C141      1.29289      .   S
    O243   C143      1.29261      .   S
    Cd5    O247      2.26423  1_655   S
    Cd5    O227      2.31206      .   S
    Cd5    O302      2.17824      .   S
    Cd3    O245      2.26446  1_655   S
    Cd3    O225      2.31205      .   S
    Cd3    O300      2.17822      .   S
    Cd32   O249      2.26436      .   S
    Cd32   O221      2.31219      .   S
    Cd32   O296      2.17761      .   S
    Cd1    O251      2.26436      .   S
    Cd1    O223      2.31220      .   S
    Cd1    O298      2.17781      .   S
    O235   C130      1.27606      .   S
    O233   C128      1.27621      .   S
    O231   C126      1.27651      .   S
    O229   C124      1.27642      .   S
    O245   C137      1.25900      .   S
    O247   C139      1.25919      .   S
    O251   C143      1.25914      .   S
    O249   C141      1.25915      .   S
    O225   C128      1.28076      .   S
    O227   C130      1.28016      .   S
    O221   C124      1.28050      .   S
    O223   C126      1.28053      .   S
    O308   C217      1.26514      .   S
    O310   C219      1.26500      .   S
    O304   C213      1.26507      .   S
    O306   C215      1.26508      .   S
    C137   C80       1.49216      .   S
    C139   C82       1.49214      .   S
    C141   C84       1.49226      .   S
    C143   C86       1.49223      .   S
    C130   C78       1.50423      .   S
    C128   C76       1.50312      .   S
    C124   C72       1.50362      .   S
    C126   C74       1.50358      .   S
    C219   O302      1.28867      .   S
    C219   C183      1.50451      .   S
    C217   O300      1.28867      .   S
    C217   C181      1.50450      .   S
    C215   O298      1.28870      .   S
    C215   C179      1.50460      .   S
    C213   O296      1.28872      .   S
    C213   C177      1.50461      .   S
    H62    C191      1.08647      .   S
    H60    C189      1.08647      .   S
    H58    C187      1.08666      .   S
    H56    C185      1.08652      .   S
    C82    C74       1.41235      .   S
    C82    C90       1.39465      .   S
    C80    C72       1.41234      .   S
    C80    C88       1.39480      .   S
    C84    C76       1.41226      .   S
    C84    C92       1.39476      .   S
    C86    C78       1.41228      .   S
    C86    C94       1.39461      .   S
    C78    C122      1.39561      .   S
    C76    C120      1.39562      .   S
    C72    C116      1.39557      .   S
    C74    C118      1.39556      .   S
    C191   C183      1.39869      .   S
    C191   C200      1.39626      .   S
    C189   C181      1.39870      .   S
    C189   C198      1.39625      .   S
    C187   C179      1.39865      .   S
    C187   C196      1.39611      .   S
    C185   C177      1.39867      .   S
    C185   C194      1.39610      .   S
    C183   C176      1.40247      .   S
    C181   C174      1.40233      .   S
    C179   C172      1.40351      .   S
    C177   C170      1.40351      .   S
    H25    C90       1.08871      .   S
    H23    C88       1.08872      .   S
    H29    C94       1.08862      .   S
    H27    C92       1.08871      .   S
    C90    C99       1.40368      .   S
    C88    C97       1.40235      .   S
    C94    C107      1.40359      .   S
    C92    C105      1.40345      .   S
    C120   H44       1.08947      .   S
    C120   C113      1.39625      .   S
    C122   H46       1.08948      .   S
    C122   C115      1.39628      .   S
    C116   H40       1.08963      .   S
    C116   C109      1.39647      .   S
    C118   H42       1.08951      .   S
    C118   C111      1.39650      .   S
    H71    C200      1.08947      .   S
    H69    C198      1.08948      .   S
    H65    C194      1.08945      .   S
    H67    C196      1.08946      .   S
    C200   C160      1.39533      .   S
    C198   C158      1.39533      .   S
    C196   C156      1.39548      .   S
    C194   C154      1.39548      .   S
    C174   H53       1.08837      .   S
    C174   C166      1.39644      .   S
    C176   H55       1.08842      .   S
    C176   C168      1.39624      .   S
    C170   H49       1.08872      .   S
    C170   C162      1.39488      .   S
    C172   H51       1.08871      .   S
    C172   C164      1.39490      .   S
    C97    C109      1.39846      .   S
    C97    C146      1.50673      .   S
    C99    C111      1.39883      .   S
    C99    C148      1.50523      .   S
    C105   C113      1.39879      .   S
    C105   C150      1.50483      .   S
    C107   C115      1.39879      .   S
    C107   C152      1.50484      .   S
    C115   H39       1.08659      .   S
    C113   H37       1.08660      .   S
    C109   H33       1.08669      .   S
    C111   H35       1.08668      .   S
    C160   C168      1.41221      .   S
    C160   C100      1.50316      .   S
    C158   C166      1.41219      .   S
    C158   C206      1.50317      .   S
    C156   C164      1.41229      .   S
    C156   C204      1.50301      .   S
    C154   C162      1.41231      .   S
    C154   C202      1.50315      .   S
    C168   C212      1.49197      .   S
    C166   C210      1.49199      .   S
    C164   C208      1.49200      .   S
    C162   C102      1.49201      .   S
    O256   C148      1.28872      .   S
    O256   Cd10      2.17815      .   S
    O254   C146      1.28875      .   S
    O254   Cd8       2.17801      .   S
    O260   C152      1.28879      .   S
    O260   Cd14      2.17797      .   S
    O258   C150      1.28881      .   S
    O258   Cd12      2.17629      .   S
    C148   O135      1.26508      .   S
    C146   O133      1.26510      .   S
    C150   O261      1.26491      .   S
    C152   O263      1.26486      .   S
    C100   O271      1.28010      .   S
    C100   O279      1.27635      .   S
    C206   O269      1.28009      .   S
    C206   O277      1.27636      .   S
    C204   O267      1.28020      .   S
    C204   O275      1.27653      .   S
    C202   O265      1.27329      .   S
    C202   O273      1.27647      .   S
    C212   O295      1.25927      .   S
    C212   O287      1.29251      .   S
    C210   O293      1.25927      .   S
    C210   O285      1.29255      .   S
    C208   O291      1.25938      .   S
    C208   O283      1.29252      .   S
    C102   O289      1.25939      .   S
    C102   O281      1.29254      .   S
    O133   Cd18      2.45414      .   S
    O135   Cd16      2.45433      .   S
    O265   Cd8       2.31237      .   S
    O261   Cd22      2.44808      .   S
    O263   Cd20      2.44832      .   S
    O271   Cd14      2.31084      .   S
    O269   Cd12      2.31080      .   S
    O267   Cd10      2.31206      .   S
    O295   Cd10      2.26467  1_655   S
    O293   Cd8       2.26467  1_655   S
    O279   Cd22      2.20041      .   S
    O277   Cd20      2.20044  1_545   S
    O289   Cd12      2.26619      .   S
    O291   Cd14      2.26596      .   S
    O275   Cd18      2.20137      .   S
    O273   Cd16      2.20138  1_545   S
    Cd12   O242      2.19214      .   S
    Cd14   O244      2.19114      .   S
    Cd10   O240      2.19126      .   S
    Cd8    O238      2.19124      .   S
    O287   Cd6       2.19099      .   S
    O285   Cd4       2.19100      .   S
    O283   Cd2       2.19107      .   S
    O281   Cd0       2.19105      .   S
    Cd18   O230      2.20133      .   S
    Cd18   O307      2.45654      .   S
    Cd16   O232      2.20266      .   S
    Cd16   O305      2.45652  1_565   S
    Cd22   O234      2.20395      .   S
    Cd22   O311      2.44886      .   S
    Cd20   O236      2.20392      .   S
    Cd20   O309      2.45508  1_565   S
    O238   C138      1.29237      .   S
    O240   C140      1.29244      .   S
    O242   C142      1.29289      .   S
    O244   C144      1.29260      .   S
    Cd6    O248      2.26423  1_655   S
    Cd6    O228      2.31205      .   S
    Cd6    O303      2.17823      .   S
    Cd4    O246      2.26424  1_655   S
    Cd4    O226      2.31203      .   S
    Cd4    O301      2.17823      .   S
    Cd0    O250      2.26438      .   S
    Cd0    O222      2.31219      .   S
    Cd0    O297      2.17780      .   S
    Cd2    O252      2.26437      .   S
    Cd2    O224      2.31218      .   S
    Cd2    O299      2.17782      .   S
    O236   C131      1.27621      .   S
    O234   C129      1.27620      .   S
    O230   C125      1.27700      .   S
    O232   C127      1.27650      .   S
    O248   C140      1.25920      .   S
    O246   C138      1.25922      .   S
    O252   C144      1.25914      .   S
    O250   C142      1.25915      .   S
    O228   C131      1.28077      .   S
    O226   C129      1.28078      .   S
    O224   C127      1.28134      .   S
    O222   C125      1.28051      .   S
    O311   C220      1.27550      .   S
    O309   C218      1.26497      .   S
    O307   C216      1.26494      .   S
    O305   C214      1.26446      .   S
    C140   C83       1.49214      .   S
    C138   C81       1.49217      .   S
    C144   C87       1.49223      .   S
    C142   C85       1.49225      .   S
    C129   C77       1.50314      .   S
    C131   C79       1.50312      .   S
    C125   C73       1.50363      .   S
    C127   C75       1.50323      .   S
    C220   O303      1.28867      .   S
    C220   C184      1.50453      .   S
    C218   O301      1.28866      .   S
    C218   C182      1.50470      .   S
    C214   O297      1.28861      .   S
    C214   C178      1.50537      .   S
    C216   O299      1.28866      .   S
    C216   C180      1.50308      .   S
    H63    C192      1.08778      .   S
    H61    C190      1.08662      .   S
    H59    C188      1.08549      .   S
    H57    C186      1.08667      .   S
    C81    C73       1.41233      .   S
    C81    C89       1.39479      .   S
    C83    C75       1.41243      .   S
    C83    C91       1.39463      .   S
    C87    C79       1.41227      .   S
    C87    C95       1.38140      .   S
    C85    C77       1.41225      .   S
    C85    C93       1.39475      .   S
    C79    C123      1.39562      .   S
    C77    C121      1.39563      .   S
    C75    C119      1.39571      .   S
    C73    C117      1.32378      .   S
    C192   C184      1.39869      .   S
    C190   C182      1.39869      .   S
    C188   C180      1.39871      .   S
    C186   C178      1.39867      .   S
    H26    C91       1.08871      .   S
    H24    C89       1.08871      .   S
    H30    C95       1.09194      .   S
    H28    C93       1.08871      .   S
    C117   H41       1.07216      .   S
    C121   H45       1.08961      .   S
    C123   H47       1.08948      .   S
    C119   H43       1.08959      .   S
