# CIF file generated by openbabel 2.4.90, see http://openbabel.sf.net
data_I
_chemical_name_common ''
_cell_length_a 14.039
_cell_length_b 17.601
_cell_length_c 19.954
_cell_angle_alpha 102.064
_cell_angle_beta 104.579
_cell_angle_gamma 83.83
_space_group_name_H-M_alt 'P 1'
_space_group_name_Hall 'P 1'
loop_
    _symmetry_equiv_pos_as_xyz
    x,y,z
loop_
    _atom_site_label
    _atom_site_type_symbol
    _atom_site_fract_x
    _atom_site_fract_y
    _atom_site_fract_z
    _atom_site_occupancy
    C0      C    0.73906   0.58687   0.64385   1.000
    C1      C    0.37264   0.21179   0.15906   1.000
    C2      C    0.37264   0.21179   0.65906   1.000
    C3      C    0.37264   0.71179   0.15906   1.000
    C4      C    0.26117   0.41323   0.35530   1.000
    C5      C    0.26117   0.41323   0.85530   1.000
    C6      C    0.26117   0.91322   0.35530   1.000
    C7      C    0.26116   0.91322   0.85530   1.000
    C8      C    0.76122   0.41327   0.35516   1.000
    C9      C    0.76121   0.41326   0.85516   1.000
    C10     C    0.76122   0.91326   0.35510   1.000
    C11     C    0.76121   0.91326   0.85516   1.000
    O12     O    0.20457   0.38018   0.16374   1.000
    O13     O    0.20456   0.38018   0.66374   1.000
    O14     O    0.20456   0.88017   0.16374   1.000
    O15     O    0.20456   0.88017   0.66374   1.000
    O16     O    0.70778   0.37992   0.16405   1.000
    C17     C    0.12784   0.28823   0.34040   1.000
    C18     C    0.12784   0.28823   0.84040   1.000
    C19     C    0.12784   0.78823   0.34040   1.000
    C20     C    0.12784   0.78823   0.84040   1.000
    C21     C    0.62793   0.28826   0.34060   1.000
    C22     C    0.62792   0.28826   0.84060   1.000
    C23     C    0.62793   0.78826   0.34060   1.000
    C24     C    0.62792   0.78826   0.84060   1.000
    C25     C    0.17445   0.33933   0.10320   1.000
    C26     C    0.17445   0.33933   0.60319   1.000
    C27     C    0.17444   0.83933   0.10319   1.000
    C28     C    0.17444   0.83933   0.60319   1.000
    C29     C    0.67613   0.33949   0.10355   1.000
    C30     C    0.67613   0.33949   0.60355   1.000
    C31     C    0.67611   0.83950   0.10355   1.000
    C32     C    0.67610   0.83949   0.60355   1.000
    C33     C    0.23911   0.08684   0.14395   1.000
    C34     C    0.23911   0.08684   0.64395   1.000
    C35     C    0.23911   0.58684   0.14395   1.000
    C36     C    0.23911   0.58684   0.64394   1.000
    C37     C    0.73908   0.08687   0.14385   1.000
    C38     C    0.73908   0.08686   0.64386   1.000
    C39     C    0.73907   0.58687   0.14385   1.000
    C40     C    0.37263   0.71179   0.65906   1.000
    C41     C    0.87252   0.21180   0.15901   1.000
    C42     C    0.87251   0.21179   0.65901   1.000
    C43     C    0.87252   0.71179   0.15900   1.000
    C44     C    0.87251   0.71179   0.65900   1.000
    C45     C    0.32610   0.16076   0.39624   1.000
    C46     C    0.32610   0.16076   0.89620   1.000
    C47     C    0.32610   0.66076   0.39624   1.000
    C48     C    0.32610   0.66076   0.89623   1.000
    C49     C    0.82617   0.16077   0.39620   1.000
    C50     C    0.82617   0.16076   0.89619   1.000
    C51     C    0.82617   0.66076   0.39619   1.000
    C52     C    0.82617   0.66076   0.89619   1.000
    O53     O    0.34116   0.39688   0.33418   1.000
    O54     O    0.34116   0.39688   0.83418   1.000
    O55     O    0.34117   0.89688   0.33418   1.000
    O56     O    0.34116   0.89688   0.83410   1.000
    O57     O    0.84122   0.39696   0.33402   1.000
    O58     O    0.84121   0.39696   0.83402   1.000
    O59     O    0.84122   0.89696   0.33402   1.000
    O60     O    0.84122   0.89695   0.83402   1.000
    O61     O    0.19260   0.45926   0.32818   1.000
    O62     O    0.19260   0.45926   0.82810   1.000
    O63     O    0.19260   0.95925   0.32817   1.000
    O64     O    0.19259   0.95925   0.82817   1.000
    O65     O    0.69264   0.45927   0.32804   1.000
    O66     O    0.69263   0.45927   0.82804   1.000
    O67     O    0.69264   0.95926   0.32800   1.000
    O68     O    0.69263   0.95926   0.82804   1.000
    O69     O    0.17965   0.28340   0.29437   1.000
    O70     O    0.17965   0.28340   0.79437   1.000
    O71     O    0.17966   0.78340   0.29437   1.000
    O72     O    0.17965   0.78339   0.79437   1.000
    O73     O    0.67952   0.28341   0.29440   1.000
    O74     O    0.67951   0.28340   0.79440   1.000
    O75     O    0.67952   0.78340   0.29442   1.000
    O76     O    0.67952   0.78340   0.79442   1.000
    O77     O    0.04998   0.25312   0.32830   1.000
    O78     O    0.04998   0.25311   0.82839   1.000
    O79     O    0.04998   0.75311   0.32837   1.000
    O80     O    0.04998   0.75311   0.82837   1.000
    O81     O    0.55011   0.25317   0.32885   1.000
    O82     O    0.55011   0.25317   0.82885   1.000
    O83     O    0.55011   0.75317   0.32884   1.000
    O84     O    0.55011   0.75317   0.82884   1.000
    O85     O    0.12154   0.28028   0.09104   1.000
    O86     O    0.12153   0.28028   0.59104   1.000
    O87     O    0.12152   0.78028   0.09103   1.000
    O88     O    0.12153   0.78028   0.59103   1.000
    O89     O    0.62222   0.28106   0.09157   1.000
    O90     O    0.62223   0.28105   0.59157   1.000
    O91     O    0.62218   0.78108   0.09157   1.000
    O92     O    0.62218   0.78108   0.59156   1.000
    O93     O    0.70778   0.37992   0.66405   1.000
    O94     O    0.70778   0.87991   0.16405   1.000
    O95     O    0.70778   0.87991   0.66405   1.000
    O96     O    0.15886   0.10316   0.16469   1.000
    O97     O    0.15886   0.10316   0.66400   1.000
    O98     O    0.15886   0.60316   0.16469   1.000
    O99     O    0.15885   0.60316   0.66469   1.000
    O100    O    0.65881   0.10315   0.16458   1.000
    O101    O    0.65880   0.10314   0.66458   1.000
    O102    O    0.65880   0.60315   0.16457   1.000
    O103    O    0.65879   0.60315   0.66457   1.000
    O104    O    0.30761   0.04090   0.17129   1.000
    O105    O    0.30761   0.04090   0.67129   1.000
    O106    O    0.30761   0.54090   0.17129   1.000
    O107    O    0.30760   0.54090   0.67129   1.000
    O108    O    0.80768   0.04102   0.17122   1.000
    O109    O    0.80767   0.04102   0.67122   1.000
    O110    O    0.80767   0.54103   0.17121   1.000
    O111    O    0.80766   0.54102   0.67121   1.000
    O112    O    0.32066   0.21661   0.20499   1.000
    O113    O    0.32065   0.21660   0.70499   1.000
    O114    O    0.32066   0.71661   0.20499   1.000
    O115    O    0.32065   0.71660   0.70499   1.000
    O116    O    0.82060   0.21652   0.20497   1.000
    O117    O    0.82060   0.21652   0.70497   1.000
    O118    O    0.82060   0.71652   0.20496   1.000
    O119    O    0.82060   0.71652   0.70496   1.000
    O120    O    0.45054   0.24691   0.17123   1.000
    O121    O    0.45054   0.24691   0.67123   1.000
    O122    O    0.45054   0.74691   0.17123   1.000
    O123    O    0.45053   0.74691   0.67123   1.000
    O124    O    0.95035   0.24698   0.17116   1.000
    O125    O    0.95035   0.24697   0.67116   1.000
    O126    O    0.95035   0.74698   0.17114   1.000
    O127    O    0.95035   0.74697   0.67114   1.000
    O128    O    0.37896   0.21983   0.40830   1.000
    O129    O    0.37896   0.21982   0.90831   1.000
    O130    O    0.37897   0.71982   0.40831   1.000
    O131    O    0.37897   0.71982   0.90831   1.000
    O132    O    0.87899   0.21986   0.40827   1.000
    O133    O    0.87899   0.21985   0.90827   1.000
    O134    O    0.87899   0.71985   0.40826   1.000
    O135    O    0.87899   0.71985   0.90826   1.000
    O136    O    0.29574   0.11989   0.33574   1.000
    O137    O    0.29574   0.11989   0.83574   1.000
    O138    O    0.29574   0.61989   0.33574   1.000
    O139    O    0.29574   0.61988   0.83574   1.000
    O140    O    0.79583   0.11988   0.33570   1.000
    O141    O    0.79583   0.11988   0.83570   1.000
    O142    O    0.79583   0.61988   0.33570   1.000
    O143    O    0.79583   0.61987   0.83500   1.000
loop_
    _geom_bond_atom_site_label_1
    _geom_bond_atom_site_label_2
    _geom_bond_distance
    _geom_bond_site_symmetry_2
    _ccdc_geom_bond_type
    O87    C27       1.28871      .   S
    O85    C25       1.28871      .   S
    O91    C31       1.28881      .   S
    O89    C29       1.28880      .   S
    C27    O14       1.26508      .   S
    C25    O12       1.26494      .   S
    C29    O16       1.26491      .   S
    C31    O94       1.26487      .   S
    C37    O100      1.28018      .   S
    C37    O108      1.27640      .   S
    C39    O102      1.28008      .   S
    C39    O110      1.27633      .   S
    C33    O96       1.28008      .   S
    C33    O104      1.27648      .   S
    C35    O98       1.28012      .   S
    C35    O106      1.27648      .   S
    C43    O126      1.25927      .   S
    C43    O118      1.29251      .   S
    C41    O124      1.25925      .   S
    C41    O116      1.29255      .   S
    C1     O120      1.25937      .   S
    C1     O112      1.29252      .   S
    C3     O122      1.25937      .   S
    C3     O114      1.29252      .   S
    O69    C17       1.29238      .   S
    O71    C19       1.29246      .   S
    O73    C21       1.29289      .   S
    O75    C23       1.29261      .   S
    O67    C10       1.27606      .   S
    O65    C8        1.27621      .   S
    O63    C6        1.27651      .   S
    O61    C4        1.27642      .   S
    O77    C17       1.25900      .   S
    O79    C19       1.25919      .   S
    O83    C23       1.25914      .   S
    O81    C21       1.25915      .   S
    O57    C8        1.28076      .   S
    O59    C10       1.28016      .   S
    O53    C4        1.28050      .   S
    O55    C6        1.28053      .   S
    O140   C49       1.26514      .   S
    O142   C51       1.26500      .   S
    O136   C45       1.26507      .   S
    O138   C47       1.26508      .   S
    C51    O134      1.28867      .   S
    C49    O132      1.28867      .   S
    C47    O130      1.28870      .   S
    C45    O128      1.28872      .   S
    O88    C28       1.28872      .   S
    O86    C26       1.28875      .   S
    O92    C32       1.28879      .   S
    O90    C30       1.28881      .   S
    C28    O15       1.26508      .   S
    C26    O13       1.26510      .   S
    C30    O93       1.26491      .   S
    C32    O95       1.26486      .   S
    C0     O103      1.28010      .   S
    C0     O111      1.27635      .   S
    C38    O101      1.28009      .   S
    C38    O109      1.27636      .   S
    C36    O99       1.28020      .   S
    C36    O107      1.27653      .   S
    C34    O97       1.27329      .   S
    C34    O105      1.27647      .   S
    C44    O127      1.25927      .   S
    C44    O119      1.29251      .   S
    C42    O125      1.25927      .   S
    C42    O117      1.29255      .   S
    C40    O123      1.25938      .   S
    C40    O115      1.29252      .   S
    C2     O121      1.25939      .   S
    C2     O113      1.29254      .   S
    O70    C18       1.29237      .   S
    O72    C20       1.29244      .   S
    O74    C22       1.29289      .   S
    O76    C24       1.29260      .   S
    O68    C11       1.27621      .   S
    O66    C9        1.27620      .   S
    O62    C5        1.27700      .   S
    O64    C7        1.27650      .   S
    O80    C20       1.25920      .   S
    O78    C18       1.25922      .   S
    O84    C24       1.25914      .   S
    O82    C22       1.25915      .   S
    O60    C11       1.28077      .   S
    O58    C9        1.28078      .   S
    O56    C7        1.28134      .   S
    O54    C5        1.28051      .   S
    O143   C52       1.27550      .   S
    O141   C50       1.26497      .   S
    O139   C48       1.26494      .   S
    O137   C46       1.26446      .   S
    C52    O135      1.28867      .   S
    C50    O133      1.28866      .   S
    C46    O129      1.28861      .   S
    C48    O131      1.28866      .   S
