# CIF file generated by openbabel 2.4.90, see http://openbabel.sf.net
data_I
_chemical_name_common ''
_cell_length_a 14.039
_cell_length_b 17.601
_cell_length_c 19.954
_cell_angle_alpha 102.064
_cell_angle_beta 104.579
_cell_angle_gamma 83.83
_space_group_name_H-M_alt 'P 1'
_space_group_name_Hall 'P 1'
loop_
    _symmetry_equiv_pos_as_xyz
    x,y,z
loop_
    _atom_site_label
    _atom_site_type_symbol
    _atom_site_fract_x
    _atom_site_fract_y
    _atom_site_fract_z
    _atom_site_occupancy
    Zr0     Zr   0.38456   0.26501   0.31584   1.000
    Zr1     Zr   0.38456   0.26500   0.81584   1.000
    Zr2     Zr   0.38456   0.76501   0.31584   1.000
    Zr3     Zr   0.38456   0.76500   0.81584   1.000
    Zr4     Zr   0.88451   0.26507   0.31578   1.000
    Zr5     Zr   0.88451   0.26507   0.81578   1.000
    Zr6     Zr   0.88452   0.76507   0.31577   1.000
    Zr7     Zr   0.88451   0.76507   0.81577   1.000
    Zr8     Zr   0.11580   0.23508   0.18348   1.000
    Zr9     Zr   0.11580   0.23508   0.68348   1.000
    Zr10    Zr   0.11580   0.73508   0.18348   1.000
    Zr11    Zr   0.11580   0.73508   0.68348   1.000
    Zr12    Zr   0.61607   0.23504   0.18349   1.000
    Zr13    Zr   0.61606   0.23504   0.68340   1.000
    Zr14    Zr   0.61606   0.73504   0.18348   1.000
    Zr15    Zr   0.61606   0.73504   0.68348   1.000
    Zr16    Zr   0.25018   0.99998   0.24967   1.000
    Zr17    Zr   0.25018   0.99998   0.74968   1.000
    Zr18    Zr   0.25018   0.49998   0.24968   1.000
    Zr19    Zr   0.25018   0.49997   0.74968   1.000
    Zr20    Zr   0.75098   0.99986   0.24977   1.000
    Zr21    Zr   0.75097   0.99986   0.74977   1.000
    Zr22    Zr   0.75098   0.49986   0.24976   1.000
    Zr23    Zr   0.75097   0.49985   0.74976   1.000
    Zr24    Zr   0.26117   0.41323   0.35530   1.000
    Zr25    Zr   0.26117   0.41323   0.85530   1.000
    Zr26    Zr   0.26117   0.91322   0.35530   1.000
    Zr27    Zr   0.26116   0.91322   0.85530   1.000
    Zr28    Zr   0.76122   0.41327   0.35516   1.000
    Zr29    Zr   0.76121   0.41326   0.85516   1.000
    Zr30    Zr   0.76122   0.91326   0.35510   1.000
    Zr31    Zr   0.76121   0.91326   0.85516   1.000
    Zr32    Zr   0.12784   0.28823   0.34040   1.000
    Zr33    Zr   0.12784   0.28823   0.84040   1.000
    Zr34    Zr   0.12784   0.78823   0.34040   1.000
    Zr35    Zr   0.12784   0.78823   0.84040   1.000
    Zr36    Zr   0.62793   0.28826   0.34060   1.000
    Zr37    Zr   0.62792   0.28826   0.84060   1.000
    Zr38    Zr   0.62793   0.78826   0.34060   1.000
    Zr39    Zr   0.62792   0.78826   0.84060   1.000
    Zr40    Zr   0.17445   0.33933   0.10320   1.000
    Zr41    Zr   0.17445   0.33933   0.60319   1.000
    Zr42    Zr   0.17444   0.83933   0.10319   1.000
    Zr43    Zr   0.17444   0.83933   0.60319   1.000
    Zr44    Zr   0.67613   0.33949   0.10355   1.000
    Zr45    Zr   0.67613   0.33949   0.60355   1.000
    Zr46    Zr   0.67611   0.83950   0.10355   1.000
    Zr47    Zr   0.67610   0.83949   0.60355   1.000
    Zr48    Zr   0.23911   0.08684   0.14395   1.000
    Zr49    Zr   0.23911   0.08684   0.64395   1.000
    Zr50    Zr   0.23911   0.58684   0.14395   1.000
    Zr51    Zr   0.23911   0.58684   0.64394   1.000
    Zr52    Zr   0.73908   0.08687   0.14385   1.000
    Zr53    Zr   0.73908   0.08686   0.64386   1.000
    Zr54    Zr   0.73907   0.58687   0.14385   1.000
    Zr55    Zr   0.73906   0.58687   0.64385   1.000
    Zr56    Zr   0.37264   0.21179   0.15906   1.000
    Zr57    Zr   0.37264   0.21179   0.65906   1.000
    Zr58    Zr   0.37264   0.71179   0.15906   1.000
    Zr59    Zr   0.37263   0.71179   0.65906   1.000
    Zr60    Zr   0.87252   0.21180   0.15901   1.000
    Zr61    Zr   0.87251   0.21179   0.65901   1.000
    Zr62    Zr   0.87252   0.71179   0.15900   1.000
    Zr63    Zr   0.87251   0.71179   0.65900   1.000
    Zr64    Zr   0.32610   0.16076   0.39624   1.000
    Zr65    Zr   0.32610   0.16076   0.89620   1.000
    Zr66    Zr   0.32610   0.66076   0.39624   1.000
    Zr67    Zr   0.32610   0.66076   0.89623   1.000
    Zr68    Zr   0.82617   0.16077   0.39620   1.000
    Zr69    Zr   0.82617   0.16076   0.89619   1.000
    Zr70    Zr   0.82617   0.66076   0.39619   1.000
    Zr71    Zr   0.82617   0.66076   0.89619   1.000
    Zr72    Zr   0.34116   0.39688   0.33418   1.000
    Zr73    Zr   0.34116   0.39688   0.83418   1.000
    Zr74    Zr   0.34117   0.89688   0.33418   1.000
    Zr75    Zr   0.34116   0.89688   0.83410   1.000
    Zr76    Zr   0.84122   0.39696   0.33402   1.000
    Zr77    Zr   0.84121   0.39696   0.83402   1.000
    Zr78    Zr   0.84122   0.89696   0.33402   1.000
    Zr79    Zr   0.84122   0.89695   0.83402   1.000
    Zr80    Zr   0.19260   0.45926   0.32818   1.000
    Zr81    Zr   0.19260   0.45926   0.82810   1.000
    Zr82    Zr   0.19260   0.95925   0.32817   1.000
    Zr83    Zr   0.19259   0.95925   0.82817   1.000
    Zr84    Zr   0.69264   0.45927   0.32804   1.000
    Zr85    Zr   0.69263   0.45927   0.82804   1.000
    Zr86    Zr   0.69264   0.95926   0.32800   1.000
    Zr87    Zr   0.69263   0.95926   0.82804   1.000
    Zr88    Zr   0.17965   0.28340   0.29437   1.000
    Zr89    Zr   0.17965   0.28340   0.79437   1.000
    Zr90    Zr   0.17966   0.78340   0.29437   1.000
    Zr91    Zr   0.17965   0.78339   0.79437   1.000
    Zr92    Zr   0.67952   0.28341   0.29440   1.000
    Zr93    Zr   0.67951   0.28340   0.79440   1.000
    Zr94    Zr   0.67952   0.78340   0.29442   1.000
    Zr95    Zr   0.67952   0.78340   0.79442   1.000
    Zr96    Zr   0.04998   0.25312   0.32830   1.000
    Zr97    Zr   0.04998   0.25311   0.82839   1.000
    Zr98    Zr   0.04998   0.75311   0.32837   1.000
    Zr99    Zr   0.04998   0.75311   0.82837   1.000
    Zr100   Zr   0.55011   0.25317   0.32885   1.000
    Zr101   Zr   0.55011   0.25317   0.82885   1.000
    Zr102   Zr   0.55011   0.75317   0.32884   1.000
    Zr103   Zr   0.55011   0.75317   0.82884   1.000
    Zr104   Zr   0.12154   0.28028   0.09104   1.000
    Zr105   Zr   0.12153   0.28028   0.59104   1.000
    Zr106   Zr   0.12152   0.78028   0.09103   1.000
    Zr107   Zr   0.12153   0.78028   0.59103   1.000
    Zr108   Zr   0.62222   0.28106   0.09157   1.000
    Zr109   Zr   0.62223   0.28105   0.59157   1.000
    Zr110   Zr   0.62218   0.78108   0.09157   1.000
    Zr111   Zr   0.62218   0.78108   0.59156   1.000
    Zr112   Zr   0.20457   0.38018   0.16374   1.000
    Zr113   Zr   0.20456   0.38018   0.66374   1.000
    Zr114   Zr   0.20456   0.88017   0.16374   1.000
    Zr115   Zr   0.20456   0.88017   0.66374   1.000
    Zr116   Zr   0.70778   0.37992   0.16405   1.000
    Zr117   Zr   0.70778   0.37992   0.66405   1.000
    Zr118   Zr   0.70778   0.87991   0.16405   1.000
    Zr119   Zr   0.70778   0.87991   0.66405   1.000
    Zr120   Zr   0.15886   0.10316   0.16469   1.000
    Zr121   Zr   0.15886   0.10316   0.66400   1.000
    Zr122   Zr   0.15886   0.60316   0.16469   1.000
    Zr123   Zr   0.15885   0.60316   0.66469   1.000
    Zr124   Zr   0.65881   0.10315   0.16458   1.000
    Zr125   Zr   0.65880   0.10314   0.66458   1.000
    Zr126   Zr   0.65880   0.60315   0.16457   1.000
    Zr127   Zr   0.65879   0.60315   0.66457   1.000
    Zr128   Zr   0.30761   0.04090   0.17129   1.000
    Zr129   Zr   0.30761   0.04090   0.67129   1.000
    Zr130   Zr   0.30761   0.54090   0.17129   1.000
    Zr131   Zr   0.30760   0.54090   0.67129   1.000
    Zr132   Zr   0.80768   0.04102   0.17122   1.000
    Zr133   Zr   0.80767   0.04102   0.67122   1.000
    Zr134   Zr   0.80767   0.54103   0.17121   1.000
    Zr135   Zr   0.80766   0.54102   0.67121   1.000
    Zr136   Zr   0.32066   0.21661   0.20499   1.000
    Zr137   Zr   0.32065   0.21660   0.70499   1.000
    Zr138   Zr   0.32066   0.71661   0.20499   1.000
    Zr139   Zr   0.32065   0.71660   0.70499   1.000
    Zr140   Zr   0.82060   0.21652   0.20497   1.000
    Zr141   Zr   0.82060   0.21652   0.70497   1.000
    Zr142   Zr   0.82060   0.71652   0.20496   1.000
    Zr143   Zr   0.82060   0.71652   0.70496   1.000
    Zr144   Zr   0.45054   0.24691   0.17123   1.000
    Zr145   Zr   0.45054   0.24691   0.67123   1.000
    Zr146   Zr   0.45054   0.74691   0.17123   1.000
    Zr147   Zr   0.45053   0.74691   0.67123   1.000
    Zr148   Zr   0.95035   0.24698   0.17116   1.000
    Zr149   Zr   0.95035   0.24697   0.67116   1.000
    Zr150   Zr   0.95035   0.74698   0.17114   1.000
    Zr151   Zr   0.95035   0.74697   0.67114   1.000
    Zr152   Zr   0.37896   0.21983   0.40830   1.000
    Zr153   Zr   0.37896   0.21982   0.90831   1.000
    Zr154   Zr   0.37897   0.71982   0.40831   1.000
    Zr155   Zr   0.37897   0.71982   0.90831   1.000
    Zr156   Zr   0.87899   0.21986   0.40827   1.000
    Zr157   Zr   0.87899   0.21985   0.90827   1.000
    Zr158   Zr   0.87899   0.71985   0.40826   1.000
    Zr159   Zr   0.87899   0.71985   0.90826   1.000
    Zr160   Zr   0.29574   0.11989   0.33574   1.000
    Zr161   Zr   0.29574   0.11989   0.83574   1.000
    Zr162   Zr   0.29574   0.61989   0.33574   1.000
    Zr163   Zr   0.29574   0.61988   0.83574   1.000
    Zr164   Zr   0.79583   0.11988   0.33570   1.000
    Zr165   Zr   0.79583   0.11988   0.83570   1.000
    Zr166   Zr   0.79583   0.61988   0.33570   1.000
    Zr167   Zr   0.79583   0.61987   0.83500   1.000
    O168    O    0.14798   0.80980   0.09711   1.000
    O169    O    0.11866   0.75768   0.13726   1.000
    O170    O    0.14799   0.30981   0.09712   1.000
    O171    O    0.11867   0.25768   0.13726   1.000
    O172    O    0.64915   0.81029   0.09756   1.000
    O173    O    0.61912   0.75806   0.13753   1.000
    O174    O    0.64917   0.31027   0.09756   1.000
    O175    O    0.61915   0.25805   0.13753   1.000
    O176    O    0.18950   0.85975   0.13346   1.000
    O177    O    0.18951   0.35976   0.13347   1.000
    O178    O    0.69195   0.35970   0.13380   1.000
    O179    O    0.69195   0.85970   0.13380   1.000
    O180    O    0.69894   0.09501   0.15422   1.000
    O181    O    0.77338   0.06394   0.15754   1.000
    O182    O    0.69893   0.59501   0.15421   1.000
    O183    O    0.77337   0.56395   0.15753   1.000
    O184    O    0.19898   0.09500   0.15432   1.000
    O185    O    0.27336   0.06387   0.15762   1.000
    O186    O    0.19898   0.59500   0.15432   1.000
    O187    O    0.27336   0.56387   0.15762   1.000
    O188    O    0.91143   0.72939   0.16507   1.000
    O189    O    0.84656   0.71416   0.18198   1.000
    O190    O    0.91144   0.22939   0.16509   1.000
    O191    O    0.84656   0.21416   0.18199   1.000
    O192    O    0.41159   0.22935   0.16514   1.000
    O193    O    0.34665   0.21420   0.18202   1.000
    O194    O    0.41159   0.72935   0.16514   1.000
    O195    O    0.34665   0.71420   0.18202   1.000
    O196    O    0.22737   0.94008   0.20670   1.000
    O197    O    0.22738   0.44008   0.20671   1.000
    O198    O    0.72938   0.43989   0.20691   1.000
    O199    O    0.72938   0.93989   0.20691   1.000
    O200    O    0.63743   0.66910   0.17402   1.000
    O201    O    0.63744   0.16909   0.17403   1.000
    O202    O    0.13733   0.66912   0.17408   1.000
    O203    O    0.13733   0.16912   0.17408   1.000
    O204    O    0.03308   0.74103   0.17731   1.000
    O205    O    0.03308   0.24103   0.17732   1.000
    O206    O    0.77932   0.52044   0.21049   1.000
    O207    O    0.77933   0.02044   0.21049   1.000
    O208    O    0.53330   0.24098   0.17736   1.000
    O209    O    0.53330   0.74098   0.17736   1.000
    O210    O    0.27889   0.02044   0.21048   1.000
    O211    O    0.27890   0.52044   0.21049   1.000
    O212    O    0.64779   0.75922   0.23895   1.000
    O213    O    0.14773   0.75924   0.23892   1.000
    O214    O    0.14773   0.25924   0.23892   1.000
    O215    O    0.64779   0.25922   0.23894   1.000
    O216    O    0.85256   0.74080   0.26037   1.000
    O217    O    0.85256   0.24080   0.26037   1.000
    O218    O    0.35261   0.74081   0.26042   1.000
    O219    O    0.35261   0.24081   0.26042   1.000
    O220    O    0.22139   0.97962   0.28892   1.000
    O221    O    0.27296   0.05994   0.29270   1.000
    O222    O    0.22139   0.47962   0.28893   1.000
    O223    O    0.27296   0.55993   0.29271   1.000
    O224    O    0.72181   0.47956   0.28890   1.000
    O225    O    0.77340   0.55987   0.29273   1.000
    O226    O    0.72181   0.97956   0.28889   1.000
    O227    O    0.77340   0.05987   0.29273   1.000
    O228    O    0.15375   0.28582   0.31738   1.000
    O229    O    0.15375   0.78581   0.31738   1.000
    O230    O    0.65372   0.28583   0.31750   1.000
    O231    O    0.65373   0.78583   0.31751   1.000
    O232    O    0.96725   0.75909   0.32207   1.000
    O233    O    0.86287   0.83101   0.32489   1.000
    O234    O    0.88175   0.74246   0.36202   1.000
    O235    O    0.96725   0.25909   0.32204   1.000
    O236    O    0.86287   0.33102   0.32490   1.000
    O237    O    0.88175   0.24246   0.36202   1.000
    O238    O    0.46734   0.25909   0.32234   1.000
    O239    O    0.36286   0.33095   0.32501   1.000
    O240    O    0.38176   0.24242   0.36207   1.000
    O241    O    0.46734   0.75909   0.32234   1.000
    O242    O    0.36286   0.83094   0.32501   1.000
    O243    O    0.38176   0.74241   0.36207   1.000
    O244    O    0.72693   0.93626   0.34155   1.000
    O245    O    0.72693   0.43627   0.34160   1.000
    O246    O    0.22688   0.93624   0.34173   1.000
    O247    O    0.22689   0.43624   0.34174   1.000
    O248    O    0.08891   0.27067   0.33435   1.000
    O249    O    0.08891   0.77067   0.33438   1.000
    O250    O    0.58902   0.77072   0.33472   1.000
    O251    O    0.58902   0.27072   0.33472   1.000
    O252    O    0.80122   0.40511   0.34459   1.000
    O253    O    0.80122   0.90511   0.34456   1.000
    O254    O    0.30117   0.40506   0.34474   1.000
    O255    O    0.30117   0.90505   0.34474   1.000
    O256    O    0.81100   0.14032   0.36595   1.000
    O257    O    0.81100   0.64032   0.36594   1.000
    O258    O    0.31092   0.14033   0.36599   1.000
    O259    O    0.31092   0.64032   0.36599   1.000
    O260    O    0.85258   0.69031   0.40222   1.000
    O261    O    0.85258   0.19031   0.40224   1.000
    O262    O    0.35254   0.69029   0.40227   1.000
    O263    O    0.35253   0.19029   0.40227   1.000
    O264    O    0.14798   0.80980   0.59711   1.000
    O265    O    0.11866   0.75768   0.63726   1.000
    O266    O    0.14799   0.30980   0.59711   1.000
    O267    O    0.11867   0.25768   0.63726   1.000
    O268    O    0.64914   0.81029   0.59755   1.000
    O269    O    0.61912   0.75806   0.63752   1.000
    O270    O    0.64918   0.31027   0.59756   1.000
    O271    O    0.61915   0.25804   0.63748   1.000
    O272    O    0.18950   0.85975   0.63347   1.000
    O273    O    0.18951   0.35975   0.63347   1.000
    O274    O    0.69195   0.35970   0.63380   1.000
    O275    O    0.69194   0.85970   0.63380   1.000
    O276    O    0.69893   0.59501   0.65421   1.000
    O277    O    0.77336   0.56395   0.65753   1.000
    O278    O    0.69894   0.09500   0.65422   1.000
    O279    O    0.77337   0.06394   0.65754   1.000
    O280    O    0.19898   0.59500   0.65431   1.000
    O281    O    0.27335   0.56387   0.65761   1.000
    O282    O    0.19898   0.09500   0.65397   1.000
    O283    O    0.27336   0.06387   0.65762   1.000
    O284    O    0.91143   0.72938   0.66507   1.000
    O285    O    0.84656   0.71416   0.68198   1.000
    O286    O    0.91143   0.22938   0.66508   1.000
    O287    O    0.84656   0.21416   0.68199   1.000
    O288    O    0.41158   0.72935   0.66514   1.000
    O289    O    0.34664   0.71420   0.68202   1.000
    O290    O    0.41159   0.22935   0.66514   1.000
    O291    O    0.34664   0.21420   0.68202   1.000
    O292    O    0.22737   0.44007   0.70671   1.000
    O293    O    0.22737   0.94007   0.70671   1.000
    O294    O    0.13733   0.16912   0.67374   1.000
    O295    O    0.72938   0.43988   0.70691   1.000
    O296    O    0.72938   0.93988   0.70691   1.000
    O297    O    0.63742   0.66910   0.67402   1.000
    O298    O    0.63743   0.16909   0.67399   1.000
    O299    O    0.13733   0.66912   0.67409   1.000
    O300    O    0.03307   0.74103   0.67731   1.000
    O301    O    0.03308   0.24103   0.67732   1.000
    O302    O    0.77932   0.52044   0.71049   1.000
    O303    O    0.77932   0.02044   0.71049   1.000
    O304    O    0.53330   0.24097   0.67732   1.000
    O305    O    0.53329   0.74098   0.67735   1.000
    O306    O    0.27889   0.52044   0.71049   1.000
    O307    O    0.27889   0.02044   0.71049   1.000
    O308    O    0.64779   0.25922   0.73890   1.000
    O309    O    0.64779   0.75922   0.73895   1.000
    O310    O    0.14773   0.75924   0.73892   1.000
    O311    O    0.14772   0.25924   0.73892   1.000
    O312    O    0.85256   0.74079   0.76036   1.000
    O313    O    0.85256   0.24080   0.76038   1.000
    O314    O    0.35261   0.74080   0.76041   1.000
    O315    O    0.35261   0.24080   0.76041   1.000
    O316    O    0.22139   0.47962   0.78889   1.000
    O317    O    0.27296   0.55993   0.79271   1.000
    O318    O    0.22138   0.97962   0.78892   1.000
    O319    O    0.27296   0.05993   0.79271   1.000
    O320    O    0.72180   0.47956   0.78890   1.000
    O321    O    0.77340   0.55986   0.79238   1.000
    O322    O    0.72180   0.97956   0.78891   1.000
    O323    O    0.77340   0.05987   0.79274   1.000
    O324    O    0.15374   0.28581   0.81739   1.000
    O325    O    0.15375   0.78581   0.81739   1.000
    O326    O    0.65372   0.28583   0.81750   1.000
    O327    O    0.65372   0.78583   0.81751   1.000
    O328    O    0.96724   0.75909   0.82207   1.000
    O329    O    0.86286   0.83101   0.82489   1.000
    O330    O    0.88175   0.74246   0.86201   1.000
    O331    O    0.96725   0.25909   0.82208   1.000
    O332    O    0.86286   0.33101   0.82490   1.000
    O333    O    0.88175   0.24246   0.86202   1.000
    O334    O    0.46733   0.25909   0.82234   1.000
    O335    O    0.36286   0.33094   0.82501   1.000
    O336    O    0.38176   0.24241   0.86207   1.000
    O337    O    0.46733   0.75909   0.82234   1.000
    O338    O    0.36286   0.83094   0.82497   1.000
    O339    O    0.38176   0.74241   0.86207   1.000
    O340    O    0.72692   0.93626   0.84160   1.000
    O341    O    0.72692   0.43626   0.84160   1.000
    O342    O    0.22688   0.43624   0.84170   1.000
    O343    O    0.22688   0.93624   0.84173   1.000
    O344    O    0.08891   0.77067   0.83439   1.000
    O345    O    0.08891   0.27067   0.83439   1.000
    O346    O    0.58902   0.77071   0.83472   1.000
    O347    O    0.58902   0.27071   0.83472   1.000
    O348    O    0.80122   0.90510   0.84459   1.000
    O349    O    0.80121   0.40511   0.84459   1.000
    O350    O    0.30116   0.90505   0.84470   1.000
    O351    O    0.30117   0.40506   0.84474   1.000
    O352    O    0.81100   0.64032   0.86559   1.000
    O353    O    0.81100   0.14032   0.86595   1.000
    O354    O    0.31092   0.64032   0.86599   1.000
    O355    O    0.31092   0.14032   0.86597   1.000
    O356    O    0.85258   0.69030   0.90223   1.000
    O357    O    0.85258   0.19031   0.90223   1.000
    O358    O    0.35253   0.19029   0.90225   1.000
    O359    O    0.35254   0.69029   0.90227   1.000
    N360    N    0.73715   0.37420   0.99147   1.000
    O361    O    0.69363   0.34276   0.93372   1.000
    O362    O    0.71307   0.36071   0.03138   1.000
    O363    O    0.74554   0.38675   0.93901   1.000
    N364    N    0.23643   0.37412   0.49146   1.000
    O365    O    0.19317   0.34270   0.43364   1.000
    O366    O    0.24510   0.38670   0.43906   1.000
    O367    O    0.21202   0.36062   0.53123   1.000
    N368    N    0.23643   0.37412   0.99092   1.000
    O369    O    0.24510   0.38670   0.93879   1.000
    O370    O    0.19317   0.34269   0.93336   1.000
    O371    O    0.21202   0.36062   0.03098   1.000
    N372    N    0.26434   0.62589   0.00791   1.000
    O373    O    0.30752   0.65731   0.06577   1.000
    O374    O    0.28871   0.63942   0.96814   1.000
    O375    O    0.25552   0.61333   0.06027   1.000
    N376    N    0.23643   0.87412   0.49147   1.000
    O377    O    0.21201   0.86062   0.53125   1.000
    O378    O    0.19316   0.84269   0.43364   1.000
    O379    O    0.24509   0.88670   0.43907   1.000
    N380    N    0.73715   0.37420   0.49148   1.000
    O381    O    0.74554   0.38676   0.43901   1.000
    O382    O    0.71307   0.36071   0.53138   1.000
    O383    O    0.69363   0.34276   0.43372   1.000
    N384    N    0.76433   0.12588   0.50784   1.000
    O385    O    0.78873   0.13942   0.46810   1.000
    O386    O    0.80746   0.15732   0.56571   1.000
    O387    O    0.75549   0.11333   0.56019   1.000
    N388    N    0.26434   0.12589   0.00792   1.000
    O389    O    0.25551   0.11333   0.06028   1.000
    O390    O    0.28871   0.13942   0.96816   1.000
    O391    O    0.30751   0.15731   0.06578   1.000
    N392    N    0.76432   0.62589   0.50783   1.000
    O393    O    0.75548   0.61334   0.56018   1.000
    O394    O    0.80745   0.65732   0.56570   1.000
    O395    O    0.78872   0.63942   0.46809   1.000
    N396    N    0.73715   0.87419   0.49147   1.000
    O397    O    0.74554   0.88675   0.43899   1.000
    O398    O    0.69363   0.84276   0.43372   1.000
    O399    O    0.71306   0.86071   0.53138   1.000
    N400    N    0.23642   0.87412   0.99146   1.000
    O401    O    0.24509   0.88670   0.93906   1.000
    O402    O    0.19316   0.84269   0.93364   1.000
    O403    O    0.21201   0.86062   0.03125   1.000
    N404    N    0.76432   0.62589   0.00782   1.000
    O405    O    0.75548   0.61334   0.06017   1.000
    O406    O    0.78872   0.63942   0.96809   1.000
    O407    O    0.80745   0.65732   0.06569   1.000
    N408    N    0.73715   0.87419   0.99140   1.000
    O409    O    0.74554   0.88675   0.93897   1.000
    O410    O    0.69363   0.84276   0.93369   1.000
    O411    O    0.71306   0.86071   0.03134   1.000
    N412    N    0.76433   0.12588   0.00784   1.000
    O413    O    0.78873   0.13942   0.96810   1.000
    O414    O    0.80746   0.15732   0.06571   1.000
    O415    O    0.75549   0.11333   0.06019   1.000
    N416    N    0.26434   0.62589   0.50793   1.000
    O417    O    0.25551   0.61333   0.56028   1.000
    O418    O    0.30751   0.65731   0.56578   1.000
    O419    O    0.28871   0.63942   0.46817   1.000
    N420    N    0.26434   0.12589   0.50793   1.000
    O421    O    0.25552   0.11333   0.56028   1.000
    O422    O    0.28871   0.13942   0.46817   1.000
    O423    O    0.30752   0.15731   0.56578   1.000
loop_
    _geom_bond_atom_site_label_1
    _geom_bond_atom_site_label_2
    _geom_bond_distance
    _geom_bond_site_symmetry_2
    _ccdc_geom_bond_type
    Zr106  O168      0.64435      .   S
    Zr42   O168      0.64435      .   S
    Zr106  O169      1.08907      .   S
    Zr10   O169      1.08907      .   S
    Zr104  O170      0.64436      .   S
    Zr40   O170      0.64436      .   S
    Zr104  O171      1.08901      .   S
    Zr8    O171      1.08901      .   S
    Zr110  O172      0.64441      .   S
    Zr46   O172      0.64441      .   S
    Zr110  O173      1.08888      .   S
    Zr14   O173      1.08888      .   S
    Zr108  O174      0.64440      .   S
    Zr44   O174      0.64440      .   S
    Zr108  O175      1.08899      .   S
    Zr12   O175      1.08899      .   S
    Zr42   O176      0.63254      .   S
    Zr114  O176      0.63254      .   S
    Zr40   O177      0.63247      .   S
    Zr112  O177      0.63247      .   S
    Zr44   O178      0.63245      .   S
    Zr116  O178      0.63245      .   S
    Zr46   O179      0.63244      .   S
    Zr118  O179      0.63244      .   S
    Zr52   O180      0.64009      .   S
    Zr124  O180      0.64009      .   S
    Zr52   O181      0.63820      .   S
    Zr132  O181      0.63820      .   S
    Zr54   O182      0.64004      .   S
    Zr126  O182      0.64004      .   S
    Zr54   O183      0.63817      .   S
    Zr134  O183      0.63817      .   S
    Zr48   O184      0.64004      .   S
    Zr120  O184      0.64004      .   S
    Zr48   O185      0.63824      .   S
    Zr128  O185      0.63824      .   S
    Zr50   O186      0.64006      .   S
    Zr122  O186      0.64006      .   S
    Zr50   O187      0.63824      .   S
    Zr130  O187      0.63824      .   S
    Zr62   O188      0.62963      .   S
    Zr150  O188      0.62963      .   S
    Zr62   O189      0.64626      .   S
    Zr142  O189      0.64626      .   S
    Zr60   O190      0.62963      .   S
    Zr148  O190      0.62963      .   S
    Zr60   O191      0.64628      .   S
    Zr140  O191      0.64628      .   S
    Zr56   O192      0.62969      .   S
    Zr144  O192      0.62969      .   S
    Zr56   O193      0.64626      .   S
    Zr136  O193      0.64626      .   S
    Zr58   O194      0.62968      .   S
    Zr146  O194      0.62968      .   S
    Zr58   O195      0.64626      .   S
    Zr138  O195      0.64626      .   S
    Zr114  O196      1.22713      .   S
    Zr16   O196      1.22713      .   S
    Zr112  O197      1.22708      .   S
    Zr18   O197      1.22708      .   S
    Zr116  O198      1.22403      .   S
    Zr22   O198      1.22403      .   S
    Zr118  O199      1.22416      .   S
    Zr20   O199      1.22416      .   S
    Zr126  O200      1.15541      .   S
    Zr14   O200      1.15541      .   S
    Zr124  O201      1.15540      .   S
    Zr12   O201      1.15540      .   S
    Zr122  O202      1.15603      .   S
    Zr10   O202      1.15603      .   S
    Zr120  O203      1.15603      .   S
    Zr8    O203      1.15603      .   S
    Zr150  O204      1.13234  1_655   S
    Zr10   O204      1.13234      .   S
    Zr148  O205      1.13234  1_655   S
    Zr8    O205      1.13234      .   S
    Zr134  O206      1.10022      .   S
    Zr22   O206      1.10022      .   S
    Zr132  O207      1.10022      .   S
    Zr20   O207      1.10022  1_565   S
    Zr144  O208      1.13299      .   S
    Zr12   O208      1.13299      .   S
    Zr146  O209      1.13299      .   S
    Zr14   O209      1.13299      .   S
    Zr128  O210      1.10061      .   S
    Zr16   O210      1.10061  1_565   S
    Zr130  O211      1.10069      .   S
    Zr18   O211      1.10069      .   S
    Zr14   O212      1.09557      .   S
    Zr94   O212      1.09557      .   S
    Zr10   O213      1.09563      .   S
    Zr90   O213      1.09563      .   S
    Zr8    O214      1.09562      .   S
    Zr88   O214      1.09562      .   S
    Zr12   O215      1.09533      .   S
    Zr92   O215      1.09533      .   S
    Zr142  O216      1.09549      .   S
    Zr6    O216      1.09549      .   S
    Zr140  O217      1.09550      .   S
    Zr4    O217      1.09550      .   S
    Zr138  O218      1.09553      .   S
    Zr2    O218      1.09553      .   S
    Zr136  O219      1.09552      .   S
    Zr0    O219      1.09552      .   S
    Zr16   O220      1.10140      .   S
    Zr82   O220      1.10140      .   S
    Zr16   O221      1.22831  1_565   S
    Zr160  O221      1.22831      .   S
    Zr18   O222      1.10135      .   S
    Zr80   O222      1.10135      .   S
    Zr18   O223      1.22827      .   S
    Zr162  O223      1.22827      .   S
    Zr22   O224      1.10196      .   S
    Zr84   O224      1.10196      .   S
    Zr22   O225      1.22759      .   S
    Zr166  O225      1.22759      .   S
    Zr20   O226      1.10160      .   S
    Zr86   O226      1.10160      .   S
    Zr20   O227      1.22753  1_565   S
    Zr164  O227      1.22753      .   S
    Zr88   O228      0.64619      .   S
    Zr32   O228      0.64619      .   S
    Zr90   O229      0.64623      .   S
    Zr34   O229      0.64623      .   S
    Zr92   O230      0.64645      .   S
    Zr36   O230      0.64645      .   S
    Zr94   O231      0.64631      .   S
    Zr38   O231      0.64631      .   S
    Zr6    O232      1.13211      .   S
    Zr98   O232      1.13211  1_455   S
    Zr6    O233      1.15603      .   S
    Zr78   O233      1.15603      .   S
    Zr6    O234      1.08912      .   S
    Zr158  O234      1.08912      .   S
    Zr4    O235      1.13223      .   S
    Zr96   O235      1.13223  1_455   S
    Zr4    O236      1.15602      .   S
    Zr76   O236      1.15602      .   S
    Zr4    O237      1.08911      .   S
    Zr156  O237      1.08911      .   S
    Zr0    O238      1.13218      .   S
    Zr100  O238      1.13218      .   S
    Zr0    O239      1.15610      .   S
    Zr72   O239      1.15610      .   S
    Zr0    O240      1.08880      .   S
    Zr152  O240      1.08880      .   S
    Zr2    O241      1.13218      .   S
    Zr102  O241      1.13218      .   S
    Zr2    O242      1.15610      .   S
    Zr74   O242      1.15610      .   S
    Zr2    O243      1.08890      .   S
    Zr154  O243      1.08890      .   S
    Zr86   O244      0.63803      .   S
    Zr30   O244      0.63803      .   S
    Zr84   O245      0.63811      .   S
    Zr28   O245      0.63811      .   S
    Zr82   O246      0.63825      .   S
    Zr26   O246      0.63825      .   S
    Zr80   O247      0.63821      .   S
    Zr24   O247      0.63821      .   S
    Zr96   O248      0.62950      .   S
    Zr32   O248      0.62950      .   S
    Zr98   O249      0.62959      .   S
    Zr34   O249      0.62959      .   S
    Zr102  O250      0.62957      .   S
    Zr38   O250      0.62957      .   S
    Zr100  O251      0.62957      .   S
    Zr36   O251      0.62957      .   S
    Zr76   O252      0.64038      .   S
    Zr28   O252      0.64038      .   S
    Zr78   O253      0.64008      .   S
    Zr30   O253      0.64008      .   S
    Zr72   O254      0.64025      .   S
    Zr24   O254      0.64025      .   S
    Zr74   O255      0.64027      .   S
    Zr26   O255      0.64027      .   S
    Zr164  O256      0.63257      .   S
    Zr68   O256      0.63257      .   S
    Zr166  O257      0.63250      .   S
    Zr70   O257      0.63250      .   S
    Zr160  O258      0.63254      .   S
    Zr64   O258      0.63254      .   S
    Zr162  O259      0.63254      .   S
    Zr66   O259      0.63254      .   S
    Zr70   O260      0.64434      .   S
    Zr158  O260      0.64434      .   S
    Zr68   O261      0.64434      .   S
    Zr156  O261      0.64434      .   S
    Zr66   O262      0.64435      .   S
    Zr154  O262      0.64435      .   S
    Zr64   O263      0.64436      .   S
    Zr152  O263      0.64436      .   S
    Zr107  O264      0.64436      .   S
    Zr43   O264      0.64436      .   S
    Zr107  O265      1.08908      .   S
    Zr11   O265      1.08908      .   S
    Zr105  O266      0.64438      .   S
    Zr41   O266      0.64438      .   S
    Zr105  O267      1.08901      .   S
    Zr9    O267      1.08901      .   S
    Zr111  O268      0.64440      .   S
    Zr47   O268      0.64440      .   S
    Zr111  O269      1.08898      .   S
    Zr15   O269      1.08898      .   S
    Zr109  O270      0.64440      .   S
    Zr45   O270      0.64440      .   S
    Zr109  O271      1.08815      .   S
    Zr13   O271      1.08815      .   S
    Zr43   O272      0.63254      .   S
    Zr115  O272      0.63254      .   S
    Zr41   O273      0.63255      .   S
    Zr113  O273      0.63255      .   S
    Zr45   O274      0.63245      .   S
    Zr117  O274      0.63245      .   S
    Zr47   O275      0.63243      .   S
    Zr119  O275      0.63243      .   S
    Zr55   O276      0.64005      .   S
    Zr127  O276      0.64005      .   S
    Zr55   O277      0.63818      .   S
    Zr135  O277      0.63818      .   S
    Zr53   O278      0.64004      .   S
    Zr125  O278      0.64004      .   S
    Zr53   O279      0.63818      .   S
    Zr133  O279      0.63818      .   S
    Zr51   O280      0.64010      .   S
    Zr123  O280      0.64010      .   S
    Zr51   O281      0.63826      .   S
    Zr131  O281      0.63826      .   S
    Zr49   O282      0.63665      .   S
    Zr121  O282      0.63665      .   S
    Zr49   O283      0.63824      .   S
    Zr129  O283      0.63824      .   S
    Zr63   O284      0.62963      .   S
    Zr151  O284      0.62963      .   S
    Zr63   O285      0.64626      .   S
    Zr143  O285      0.64626      .   S
    Zr61   O286      0.62964      .   S
    Zr149  O286      0.62964      .   S
    Zr61   O287      0.64628      .   S
    Zr141  O287      0.64628      .   S
    Zr59   O288      0.62969      .   S
    Zr147  O288      0.62969      .   S
    Zr59   O289      0.64626      .   S
    Zr139  O289      0.64626      .   S
    Zr57   O290      0.62970      .   S
    Zr145  O290      0.62970      .   S
    Zr57   O291      0.64627      .   S
    Zr137  O291      0.64627      .   S
    Zr113  O292      1.22707      .   S
    Zr19   O292      1.22707      .   S
    Zr115  O293      1.22717      .   S
    Zr17   O293      1.22717      .   S
    Zr121  O294      1.15618      .   S
    Zr9    O294      1.15618      .   S
    Zr117  O295      1.22404      .   S
    Zr23   O295      1.22404      .   S
    Zr119  O296      1.22416      .   S
    Zr21   O296      1.22416      .   S
    Zr127  O297      1.15542      .   S
    Zr15   O297      1.15542      .   S
    Zr125  O298      1.15540      .   S
    Zr13   O298      1.15540      .   S
    Zr123  O299      1.15603      .   S
    Zr11   O299      1.15603      .   S
    Zr151  O300      1.13233  1_655   S
    Zr11   O300      1.13233      .   S
    Zr149  O301      1.13233  1_655   S
    Zr9    O301      1.13233      .   S
    Zr135  O302      1.10021      .   S
    Zr23   O302      1.10021      .   S
    Zr133  O303      1.10022      .   S
    Zr21   O303      1.10022  1_565   S
    Zr145  O304      1.13310      .   S
    Zr13   O304      1.13310      .   S
    Zr147  O305      1.13298      .   S
    Zr15   O305      1.13298      .   S
    Zr131  O306      1.10069      .   S
    Zr19   O306      1.10069      .   S
    Zr129  O307      1.10069      .   S
    Zr17   O307      1.10069  1_565   S
    Zr13   O308      1.09607      .   S
    Zr93   O308      1.09607      .   S
    Zr15   O309      1.09557      .   S
    Zr95   O309      1.09557      .   S
    Zr11   O310      1.09563      .   S
    Zr91   O310      1.09563      .   S
    Zr9    O311      1.09562      .   S
    Zr89   O311      1.09562      .   S
    Zr143  O312      1.09549      .   S
    Zr7    O312      1.09549      .   S
    Zr141  O313      1.09550      .   S
    Zr5    O313      1.09550      .   S
    Zr139  O314      1.09553      .   S
    Zr3    O314      1.09553      .   S
    Zr137  O315      1.09553      .   S
    Zr1    O315      1.09553      .   S
    Zr19   O316      1.10066      .   S
    Zr81   O316      1.10066      .   S
    Zr19   O317      1.22827      .   S
    Zr163  O317      1.22827      .   S
    Zr17   O318      1.10133      .   S
    Zr83   O318      1.10133      .   S
    Zr17   O319      1.22826  1_565   S
    Zr161  O319      1.22826      .   S
    Zr23   O320      1.10198      .   S
    Zr85   O320      1.10198      .   S
    Zr23   O321      1.22443      .   S
    Zr167  O321      1.22443      .   S
    Zr21   O322      1.10196      .   S
    Zr87   O322      1.10196      .   S
    Zr21   O323      1.22754  1_565   S
    Zr165  O323      1.22754      .   S
    Zr89   O324      0.64618      .   S
    Zr33   O324      0.64618      .   S
    Zr91   O325      0.64622      .   S
    Zr35   O325      0.64622      .   S
    Zr93   O326      0.64644      .   S
    Zr37   O326      0.64644      .   S
    Zr95   O327      0.64630      .   S
    Zr39   O327      0.64630      .   S
    Zr7    O328      1.13211      .   S
    Zr99   O328      1.13211  1_455   S
    Zr7    O329      1.15602      .   S
    Zr79   O329      1.15602      .   S
    Zr7    O330      1.08911      .   S
    Zr159  O330      1.08911      .   S
    Zr5    O331      1.13212      .   S
    Zr97   O331      1.13212  1_455   S
    Zr5    O332      1.15602      .   S
    Zr77   O332      1.15602      .   S
    Zr5    O333      1.08911      .   S
    Zr157  O333      1.08911      .   S
    Zr1    O334      1.13219      .   S
    Zr101  O334      1.13219      .   S
    Zr1    O335      1.15610      .   S
    Zr73   O335      1.15610      .   S
    Zr1    O336      1.08890      .   S
    Zr153  O336      1.08890      .   S
    Zr3    O337      1.13219      .   S
    Zr103  O337      1.13219      .   S
    Zr3    O338      1.15609      .   S
    Zr75   O338      1.15609      .   S
    Zr3    O339      1.08891      .   S
    Zr155  O339      1.08891      .   S
    Zr87   O340      0.63811      .   S
    Zr31   O340      0.63811      .   S
    Zr85   O341      0.63810      .   S
    Zr29   O341      0.63810      .   S
    Zr81   O342      0.63850      .   S
    Zr25   O342      0.63850      .   S
    Zr83   O343      0.63825      .   S
    Zr27   O343      0.63825      .   S
    Zr99   O344      0.62960      .   S
    Zr35   O344      0.62960      .   S
    Zr97   O345      0.62961      .   S
    Zr33   O345      0.62961      .   S
    Zr103  O346      0.62957      .   S
    Zr39   O346      0.62957      .   S
    Zr101  O347      0.62958      .   S
    Zr37   O347      0.62958      .   S
    Zr79   O348      0.64039      .   S
    Zr31   O348      0.64039      .   S
    Zr77   O349      0.64039      .   S
    Zr29   O349      0.64039      .   S
    Zr75   O350      0.64067      .   S
    Zr27   O350      0.64067      .   S
    Zr73   O351      0.64026      .   S
    Zr25   O351      0.64026      .   S
    Zr167  O352      0.63775      .   S
    Zr71   O352      0.63775      .   S
    Zr165  O353      0.63249      .   S
    Zr69   O353      0.63249      .   S
    Zr163  O354      0.63247      .   S
    Zr67   O354      0.63247      .   S
    Zr161  O355      0.63223      .   S
    Zr65   O355      0.63223      .   S
    Zr71   O356      0.64434      .   S
    Zr159  O356      0.64434      .   S
    Zr69   O357      0.64433      .   S
    Zr157  O357      0.64433      .   S
    Zr65   O358      0.64430      .   S
    Zr153  O358      0.64430      .   S
    Zr67   O359      0.64433      .   S
    Zr155  O359      0.64433      .   S
    N360   O361      1.20792      .   S
    Zr37   O361      1.95091      .   S
    N360   O362      1.01807  1_556   S
    Zr44   O362      1.76775      .   S
    N360   O363      1.15023      .   S
    Zr29   O363      1.89714      .   S
    N364   O365      1.20784      .   S
    Zr32   O365      1.95083      .   S
    N364   O366      1.15050      .   S
    Zr24   O366      1.89768      .   S
    N364   O367      1.01827      .   S
    Zr41   O367      1.76894      .   S
    N368   O369      1.14520      .   S
    Zr25   O369      1.89246      .   S
    N368   O370      1.20388      .   S
    Zr33   O370      1.94688      .   S
    N368   O371      1.02366  1_556   S
    Zr40   O371      1.77370      .   S
    N372   O373      1.20801      .   S
    Zr58   O373      1.95086      .   S
    N372   O374      1.01820  1_554   S
    Zr67   O374      1.76701      .   S
    N372   O375      1.15048      .   S
    Zr50   O375      1.89742      .   S
    N376   O377      1.01856      .   S
    Zr43   O377      1.76850      .   S
    N376   O378      1.20790      .   S
    Zr34   O378      1.95088      .   S
    N376   O379      1.15060      .   S
    Zr26   O379      1.89776      .   S
    N380   O381      1.15029      .   S
    Zr28   O381      1.89719      .   S
    N380   O382      1.01805      .   S
    Zr45   O382      1.76773      .   S
    N380   O383      1.20794      .   S
    Zr36   O383      1.95094      .   S
    N384   O385      1.01782      .   S
    Zr68   O385      1.76732      .   S
    N384   O386      1.20794      .   S
    Zr61   O386      1.95081      .   S
    N384   O387      1.15027      .   S
    Zr53   O387      1.89724      .   S
    N388   O389      1.15033      .   S
    Zr48   O389      1.89727      .   S
    N388   O390      1.01807  1_554   S
    Zr65   O390      1.76800      .   S
    N388   O391      1.20790      .   S
    Zr56   O391      1.95075      .   S
    N392   O393      1.15026      .   S
    Zr55   O393      1.89722      .   S
    N392   O394      1.20793      .   S
    Zr63   O394      1.95080      .   S
    N392   O395      1.01784      .   S
    Zr70   O395      1.76734      .   S
    N396   O397      1.15055      .   S
    Zr30   O397      1.89802      .   S
    N396   O398      1.20789      .   S
    Zr38   O398      1.95088      .   S
    N396   O399      1.01811      .   S
    Zr47   O399      1.76780      .   S
    N400   O401      1.15062      .   S
    Zr27   O401      1.89760      .   S
    N400   O402      1.20786      .   S
    Zr35   O402      1.95084      .   S
    N400   O403      1.01860  1_556   S
    Zr42   O403      1.76853      .   S
    N404   O405      1.15031      .   S
    Zr54   O405      1.89740      .   S
    N404   O406      1.01771  1_554   S
    Zr71   O406      1.76722      .   S
    N404   O407      1.20802      .   S
    Zr62   O407      1.95089      .   S
    N408   O409      1.14954      .   S
    Zr31   O409      1.89644      .   S
    N408   O410      1.20738      .   S
    Zr39   O410      1.95036      .   S
    N408   O411      1.01874  1_556   S
    Zr46   O411      1.76844      .   S
    N412   O413      1.01791  1_554   S
    Zr69   O413      1.76750      .   S
    N412   O414      1.20790      .   S
    Zr60   O414      1.95077      .   S
    N412   O415      1.15015      .   S
    Zr52   O415      1.89703      .   S
    N416   O417      1.15026      .   S
    Zr51   O417      1.89712      .   S
    N416   O418      1.20785      .   S
    Zr59   O418      1.95070      .   S
    N416   O419      1.01795      .   S
    Zr66   O419      1.76750      .   S
    N420   O421      1.15028      .   S
    Zr49   O421      1.89722      .   S
    N420   O422      1.01796      .   S
    Zr64   O422      1.76752      .   S
    N420   O423      1.20785      .   S
    Zr57   O423      1.95070      .   S
