# CIF file generated by openbabel 2.4.90, see http://openbabel.sf.net
data_I
_chemical_name_common ''
_cell_length_a 14.039
_cell_length_b 17.601
_cell_length_c 19.954
_cell_angle_alpha 102.064
_cell_angle_beta 104.579
_cell_angle_gamma 83.83
_space_group_name_H-M_alt 'P 1'
_space_group_name_Hall 'P 1'
loop_
    _symmetry_equiv_pos_as_xyz
    x,y,z
loop_
    _atom_site_label
    _atom_site_type_symbol
    _atom_site_fract_x
    _atom_site_fract_y
    _atom_site_fract_z
    _atom_site_occupancy
    C0      C    0.38456   0.26501   0.31584   1.000
    C1      C    0.38456   0.26500   0.81584   1.000
    C2      C    0.38456   0.76501   0.31584   1.000
    C3      C    0.38456   0.76500   0.81584   1.000
    C4      C    0.88451   0.26507   0.31578   1.000
    C5      C    0.88451   0.26507   0.81578   1.000
    C6      C    0.88452   0.76507   0.31577   1.000
    C7      C    0.88451   0.76507   0.81577   1.000
    C8      C    0.11580   0.23508   0.18348   1.000
    C9      C    0.11580   0.23508   0.68348   1.000
    C10     C    0.11580   0.73508   0.18348   1.000
    C11     C    0.11580   0.73508   0.68348   1.000
    C12     C    0.61607   0.23504   0.18349   1.000
    C13     C    0.61606   0.23504   0.68340   1.000
    C14     C    0.61606   0.73504   0.18348   1.000
    C15     C    0.61606   0.73504   0.68348   1.000
    C16     C    0.25018   0.99998   0.24967   1.000
    C17     C    0.25018   0.99998   0.74968   1.000
    C18     C    0.25018   0.49998   0.24968   1.000
    C19     C    0.25018   0.49997   0.74968   1.000
    C20     C    0.75098   0.99986   0.24977   1.000
    C21     C    0.75097   0.99986   0.74977   1.000
    C22     C    0.75098   0.49986   0.24976   1.000
    C23     C    0.75097   0.49985   0.74976   1.000
    C24     C    0.09211   0.28056   0.46620   1.000
    C25     C    0.09210   0.28056   0.96620   1.000
    C26     C    0.09209   0.78056   0.46619   1.000
    C27     C    0.09209   0.78055   0.96619   1.000
    C28     C    0.59281   0.28073   0.46663   1.000
    C29     C    0.59281   0.28073   0.96663   1.000
    C30     C    0.59280   0.78073   0.46660   1.000
    C31     C    0.59279   0.78073   0.96663   1.000
    C32     C    0.32337   0.42410   0.09695   1.000
    C33     C    0.32337   0.42410   0.59695   1.000
    C34     C    0.32335   0.92411   0.09695   1.000
    C35     C    0.32336   0.92410   0.59695   1.000
    C36     C    0.82458   0.42410   0.09680   1.000
    C37     C    0.82458   0.42410   0.59681   1.000
    C38     C    0.82458   0.92410   0.09682   1.000
    C39     C    0.82457   0.92409   0.59681   1.000
    C40     C    0.36202   0.45258   0.49050   1.000
    C41     C    0.36202   0.45257   0.99052   1.000
    C42     C    0.36201   0.95257   0.49053   1.000
    C43     C    0.36200   0.95258   0.99050   1.000
    C44     C    0.86252   0.45267   0.49013   1.000
    C45     C    0.86252   0.45266   0.99010   1.000
    C46     C    0.86253   0.95265   0.49013   1.000
    C47     C    0.86252   0.95265   0.99013   1.000
    C48     C    0.40872   0.21944   0.03330   1.000
    C49     C    0.40873   0.21944   0.53331   1.000
    C50     C    0.40872   0.71945   0.03330   1.000
    C51     C    0.40872   0.71945   0.53331   1.000
    C52     C    0.90868   0.21950   0.03328   1.000
    C53     C    0.90868   0.21950   0.53329   1.000
    C54     C    0.90867   0.71950   0.03328   1.000
    C55     C    0.90867   0.71950   0.53328   1.000
    C56     C    0.17752   0.07596   0.40241   1.000
    C57     C    0.17751   0.07596   0.90240   1.000
    C58     C    0.17753   0.57596   0.40240   1.000
    C59     C    0.17753   0.57596   0.90240   1.000
    C60     C    0.67762   0.07592   0.40230   1.000
    C61     C    0.67761   0.07592   0.90229   1.000
    C62     C    0.67761   0.57592   0.40229   1.000
    C63     C    0.67761   0.57592   0.90220   1.000
    C64     C    0.13871   0.04741   0.00877   1.000
    C65     C    0.13871   0.04740   0.50877   1.000
    C66     C    0.13872   0.54740   0.00877   1.000
    C67     C    0.13871   0.54740   0.50877   1.000
    C68     C    0.63874   0.04733   0.00864   1.000
    C69     C    0.63874   0.04732   0.50864   1.000
    C70     C    0.63873   0.54733   0.00863   1.000
    C71     C    0.63873   0.54733   0.50863   1.000
    C72     C    0.24635   0.38532   0.41802   1.000
    C73     C    0.24635   0.38532   0.91802   1.000
    C74     C    0.24635   0.88532   0.41802   1.000
    C75     C    0.24634   0.88532   0.91800   1.000
    C76     C    0.74665   0.38537   0.41793   1.000
    C77     C    0.74664   0.38536   0.91793   1.000
    C78     C    0.74665   0.88536   0.41793   1.000
    C79     C    0.74665   0.88536   0.91793   1.000
    C80     C    0.17197   0.33430   0.41122   1.000
    C81     C    0.17196   0.33430   0.91122   1.000
    C82     C    0.17196   0.83430   0.41122   1.000
    C83     C    0.17196   0.83430   0.91122   1.000
    C84     C    0.67230   0.33440   0.41134   1.000
    C85     C    0.67229   0.33439   0.91134   1.000
    C86     C    0.67230   0.83439   0.41134   1.000
    C87     C    0.67229   0.83439   0.91134   1.000
    C88     C    0.14892   0.32036   0.47145   1.000
    C89     C    0.14891   0.32036   0.97145   1.000
    C90     C    0.14890   0.82036   0.47144   1.000
    C91     C    0.14890   0.82036   0.97144   1.000
    C92     C    0.64963   0.32046   0.47170   1.000
    C93     C    0.64962   0.32046   0.97170   1.000
    C94     C    0.64961   0.82047   0.47169   1.000
    C95     C    0.64961   0.82046   0.97100   1.000
    C96     C    0.20076   0.35491   0.03889   1.000
    C97     C    0.20076   0.35490   0.53880   1.000
    C98     C    0.20075   0.85491   0.03888   1.000
    C99     C    0.20075   0.85490   0.53888   1.000
    C100    C    0.70186   0.35496   0.03902   1.000
    C101    C    0.70186   0.35496   0.53902   1.000
    C102    C    0.70185   0.85496   0.03902   1.000
    C103    C    0.70185   0.85496   0.53902   1.000
    C104    C    0.28003   0.39976   0.04501   1.000
    C105    C    0.28003   0.39976   0.54501   1.000
    C106    C    0.28002   0.89976   0.04501   1.000
    C107    C    0.28002   0.89975   0.54501   1.000
    C108    C    0.78105   0.39980   0.04493   1.000
    C109    C    0.78105   0.39980   0.54493   1.000
    C110    C    0.78105   0.89980   0.04493   1.000
    C111    C    0.78105   0.89979   0.54493   1.000
    C112    C    0.30238   0.41522   0.48500   1.000
    C113    C    0.30238   0.41522   0.98000   1.000
    C114    C    0.30237   0.91522   0.48500   1.000
    C115    C    0.30236   0.91522   0.98499   1.000
    C116    C    0.80297   0.41530   0.48480   1.000
    C117    C    0.80297   0.41530   0.98480   1.000
    C118    C    0.80297   0.91529   0.48480   1.000
    C119    C    0.80297   0.91529   0.98480   1.000
    C120    C    0.26117   0.41323   0.35530   1.000
    C121    C    0.26117   0.41323   0.85530   1.000
    C122    C    0.26117   0.91322   0.35530   1.000
    C123    C    0.26116   0.91322   0.85530   1.000
    C124    C    0.76122   0.41327   0.35516   1.000
    C125    C    0.76121   0.41326   0.85516   1.000
    C126    C    0.76122   0.91326   0.35510   1.000
    C127    C    0.76121   0.91326   0.85516   1.000
    C128    C    0.12784   0.28823   0.34040   1.000
    C129    C    0.12784   0.28823   0.84040   1.000
    C130    C    0.12784   0.78823   0.34040   1.000
    C131    C    0.12784   0.78823   0.84040   1.000
    C132    C    0.62793   0.28826   0.34060   1.000
    C133    C    0.62792   0.28826   0.84060   1.000
    C134    C    0.62793   0.78826   0.34060   1.000
    C135    C    0.62792   0.78826   0.84060   1.000
    C136    C    0.17445   0.33933   0.10320   1.000
    C137    C    0.17445   0.33933   0.60319   1.000
    C138    C    0.17444   0.83933   0.10319   1.000
    C139    C    0.17444   0.83933   0.60319   1.000
    C140    C    0.67613   0.33949   0.10355   1.000
    C141    C    0.67613   0.33949   0.60355   1.000
    C142    C    0.67611   0.83950   0.10355   1.000
    C143    C    0.67610   0.83949   0.60355   1.000
    C144    C    0.25427   0.11470   0.08133   1.000
    C145    C    0.25427   0.11470   0.58133   1.000
    C146    C    0.25428   0.61470   0.08133   1.000
    C147    C    0.25427   0.61470   0.58133   1.000
    C148    C    0.75421   0.11470   0.08122   1.000
    C149    C    0.75421   0.11470   0.58122   1.000
    C150    C    0.75421   0.61471   0.08120   1.000
    C151    C    0.75420   0.61470   0.58121   1.000
    C152    C    0.32875   0.16567   0.08822   1.000
    C153    C    0.32875   0.16567   0.58822   1.000
    C154    C    0.32875   0.66568   0.08822   1.000
    C155    C    0.32874   0.66567   0.58822   1.000
    C156    C    0.82865   0.16571   0.08815   1.000
    C157    C    0.82865   0.16571   0.58815   1.000
    C158    C    0.82864   0.66572   0.08814   1.000
    C159    C    0.82864   0.66571   0.58814   1.000
    C160    C    0.35188   0.17966   0.02803   1.000
    C161    C    0.35188   0.17965   0.52803   1.000
    C162    C    0.35188   0.67966   0.02803   1.000
    C163    C    0.35188   0.67966   0.52803   1.000
    C164    C    0.85185   0.17969   0.02798   1.000
    C165    C    0.85185   0.17969   0.52790   1.000
    C166    C    0.85184   0.67969   0.02790   1.000
    C167    C    0.85184   0.67969   0.52790   1.000
    C168    C    0.30006   0.14513   0.46059   1.000
    C169    C    0.30005   0.14513   0.96059   1.000
    C170    C    0.30006   0.64513   0.46059   1.000
    C171    C    0.30006   0.64513   0.96050   1.000
    C172    C    0.80007   0.14515   0.46053   1.000
    C173    C    0.80007   0.14515   0.96053   1.000
    C174    C    0.80006   0.64515   0.46052   1.000
    C175    C    0.80006   0.64515   0.96052   1.000
    C176    C    0.22077   0.10027   0.45438   1.000
    C177    C    0.22077   0.10027   0.95438   1.000
    C178    C    0.22077   0.60027   0.45438   1.000
    C179    C    0.22078   0.60027   0.95430   1.000
    C180    C    0.72082   0.10024   0.45428   1.000
    C181    C    0.72082   0.10024   0.95428   1.000
    C182    C    0.72081   0.60024   0.45427   1.000
    C183    C    0.72081   0.60024   0.95427   1.000
    C184    C    0.19835   0.08476   0.01430   1.000
    C185    C    0.19836   0.08475   0.51433   1.000
    C186    C    0.19836   0.58476   0.01433   1.000
    C187    C    0.19836   0.58475   0.51433   1.000
    C188    C    0.69835   0.08473   0.01422   1.000
    C189    C    0.69835   0.08472   0.51422   1.000
    C190    C    0.69834   0.58473   0.01421   1.000
    C191    C    0.69834   0.58473   0.51421   1.000
    C192    C    0.23911   0.08684   0.14395   1.000
    C193    C    0.23911   0.08684   0.64395   1.000
    C194    C    0.23911   0.58684   0.14395   1.000
    C195    C    0.23911   0.58684   0.64394   1.000
    C196    C    0.73908   0.08687   0.14385   1.000
    C197    C    0.73908   0.08686   0.64386   1.000
    C198    C    0.73907   0.58687   0.14385   1.000
    C199    C    0.73906   0.58687   0.64385   1.000
    C200    C    0.37264   0.21179   0.15906   1.000
    C201    C    0.37264   0.21179   0.65906   1.000
    C202    C    0.37264   0.71179   0.15906   1.000
    C203    C    0.37263   0.71179   0.65906   1.000
    C204    C    0.87252   0.21180   0.15901   1.000
    C205    C    0.87251   0.21179   0.65901   1.000
    C206    C    0.87252   0.71179   0.15900   1.000
    C207    C    0.87251   0.71179   0.65900   1.000
    C208    C    0.32610   0.16076   0.39624   1.000
    C209    C    0.32610   0.16076   0.89620   1.000
    C210    C    0.32610   0.66076   0.39624   1.000
    C211    C    0.32610   0.66076   0.89623   1.000
    C212    C    0.82617   0.16077   0.39620   1.000
    C213    C    0.82617   0.16076   0.89619   1.000
    C214    C    0.82617   0.66076   0.39619   1.000
    C215    C    0.82617   0.66076   0.89619   1.000
    C216    C    0.34116   0.39688   0.33418   1.000
    C217    C    0.34116   0.39688   0.83418   1.000
    C218    C    0.34117   0.89688   0.33418   1.000
    C219    C    0.34116   0.89688   0.83410   1.000
    C220    C    0.84122   0.39696   0.33402   1.000
    C221    C    0.84121   0.39696   0.83402   1.000
    C222    C    0.84122   0.89696   0.33402   1.000
    C223    C    0.84122   0.89695   0.83402   1.000
    C224    C    0.19260   0.45926   0.32818   1.000
    C225    C    0.19260   0.45926   0.82810   1.000
    C226    C    0.19260   0.95925   0.32817   1.000
    C227    C    0.19259   0.95925   0.82817   1.000
    C228    C    0.69264   0.45927   0.32804   1.000
    C229    C    0.69263   0.45927   0.82804   1.000
    C230    C    0.69264   0.95926   0.32800   1.000
    C231    C    0.69263   0.95926   0.82804   1.000
    C232    C    0.17965   0.28340   0.29437   1.000
    C233    C    0.17965   0.28340   0.79437   1.000
    C234    C    0.17966   0.78340   0.29437   1.000
    C235    C    0.17965   0.78339   0.79437   1.000
    C236    C    0.67952   0.28341   0.29440   1.000
    C237    C    0.67951   0.28340   0.79440   1.000
    C238    C    0.67952   0.78340   0.29442   1.000
    C239    C    0.67952   0.78340   0.79442   1.000
    C240    C    0.04998   0.25312   0.32830   1.000
    C241    C    0.04998   0.25311   0.82839   1.000
    C242    C    0.04998   0.75311   0.32837   1.000
    C243    C    0.04998   0.75311   0.82837   1.000
    C244    C    0.55011   0.25317   0.32885   1.000
    C245    C    0.55011   0.25317   0.82885   1.000
    C246    C    0.55011   0.75317   0.32884   1.000
    C247    C    0.55011   0.75317   0.82884   1.000
    C248    C    0.12154   0.28028   0.09104   1.000
    C249    C    0.12153   0.28028   0.59104   1.000
    C250    C    0.12152   0.78028   0.09103   1.000
    C251    C    0.12153   0.78028   0.59103   1.000
    C252    C    0.62222   0.28106   0.09157   1.000
    C253    C    0.62223   0.28105   0.59157   1.000
    C254    C    0.62218   0.78108   0.09157   1.000
    C255    C    0.62218   0.78108   0.59156   1.000
    C256    C    0.20457   0.38018   0.16374   1.000
    C257    C    0.20456   0.38018   0.66374   1.000
    C258    C    0.20456   0.88017   0.16374   1.000
    C259    C    0.20456   0.88017   0.66374   1.000
    C260    C    0.70778   0.37992   0.16405   1.000
    C261    C    0.70778   0.37992   0.66405   1.000
    C262    C    0.70778   0.87991   0.16405   1.000
    C263    C    0.70778   0.87991   0.66405   1.000
    C264    C    0.15886   0.10316   0.16469   1.000
    C265    C    0.15886   0.10316   0.66400   1.000
    C266    C    0.15886   0.60316   0.16469   1.000
    C267    C    0.15885   0.60316   0.66469   1.000
    C268    C    0.65881   0.10315   0.16458   1.000
    C269    C    0.65880   0.10314   0.66458   1.000
    C270    C    0.65880   0.60315   0.16457   1.000
    C271    C    0.65879   0.60315   0.66457   1.000
    C272    C    0.30761   0.04090   0.17129   1.000
    C273    C    0.30761   0.04090   0.67129   1.000
    C274    C    0.30761   0.54090   0.17129   1.000
    C275    C    0.30760   0.54090   0.67129   1.000
    C276    C    0.80768   0.04102   0.17122   1.000
    C277    C    0.80767   0.04102   0.67122   1.000
    C278    C    0.80767   0.54103   0.17121   1.000
    C279    C    0.80766   0.54102   0.67121   1.000
    C280    C    0.32066   0.21661   0.20499   1.000
    C281    C    0.32065   0.21660   0.70499   1.000
    C282    C    0.32066   0.71661   0.20499   1.000
    C283    C    0.32065   0.71660   0.70499   1.000
    C284    C    0.82060   0.21652   0.20497   1.000
    C285    C    0.82060   0.21652   0.70497   1.000
    C286    C    0.82060   0.71652   0.20496   1.000
    C287    C    0.82060   0.71652   0.70496   1.000
    C288    C    0.45054   0.24691   0.17123   1.000
    C289    C    0.45054   0.24691   0.67123   1.000
    C290    C    0.45054   0.74691   0.17123   1.000
    C291    C    0.45053   0.74691   0.67123   1.000
    C292    C    0.95035   0.24698   0.17116   1.000
    C293    C    0.95035   0.24697   0.67116   1.000
    C294    C    0.95035   0.74698   0.17114   1.000
    C295    C    0.95035   0.74697   0.67114   1.000
    C296    C    0.37896   0.21983   0.40830   1.000
    C297    C    0.37896   0.21982   0.90831   1.000
    C298    C    0.37897   0.71982   0.40831   1.000
    C299    C    0.37897   0.71982   0.90831   1.000
    C300    C    0.87899   0.21986   0.40827   1.000
    C301    C    0.87899   0.21985   0.90827   1.000
    C302    C    0.87899   0.71985   0.40826   1.000
    C303    C    0.87899   0.71985   0.90826   1.000
    C304    C    0.29574   0.11989   0.33574   1.000
    C305    C    0.29574   0.11989   0.83574   1.000
    C306    C    0.29574   0.61989   0.33574   1.000
    C307    C    0.29574   0.61988   0.83574   1.000
    C308    C    0.79583   0.11988   0.33570   1.000
    C309    C    0.79583   0.11988   0.83570   1.000
    C310    C    0.79583   0.61988   0.33570   1.000
    C311    C    0.79583   0.61987   0.83500   1.000
    O312    O    0.66854   0.56603   0.01142   1.000
    O313    O    0.66855   0.06603   0.01143   1.000
    O314    O    0.16853   0.06609   0.01154   1.000
    O315    O    0.16854   0.56608   0.01155   1.000
    O316    O    0.72628   0.59972   0.04770   1.000
    O317    O    0.70958   0.59249   0.98424   1.000
    O318    O    0.72628   0.09971   0.04772   1.000
    O319    O    0.70958   0.09248   0.98425   1.000
    O320    O    0.22631   0.09973   0.04781   1.000
    O321    O    0.20956   0.09252   0.98434   1.000
    O322    O    0.22632   0.59973   0.04783   1.000
    O323    O    0.20957   0.59251   0.98432   1.000
    O324    O    0.88026   0.69960   0.03059   1.000
    O325    O    0.84024   0.67270   0.05802   1.000
    O326    O    0.82595   0.66242   0.99421   1.000
    O327    O    0.88026   0.19960   0.03063   1.000
    O328    O    0.84025   0.17270   0.05807   1.000
    O329    O    0.82596   0.16242   0.99425   1.000
    O330    O    0.38030   0.69955   0.03067   1.000
    O331    O    0.34031   0.67267   0.05812   1.000
    O332    O    0.32597   0.66239   0.99426   1.000
    O333    O    0.38030   0.19955   0.03067   1.000
    O334    O    0.34031   0.17266   0.05812   1.000
    O335    O    0.32597   0.16239   0.99431   1.000
    O336    O    0.24038   0.87733   0.04195   1.000
    O337    O    0.18759   0.84712   0.07104   1.000
    O338    O    0.17482   0.83763   0.00516   1.000
    O339    O    0.24040   0.37733   0.04195   1.000
    O340    O    0.18761   0.34712   0.07104   1.000
    O341    O    0.17484   0.33763   0.00517   1.000
    O342    O    0.74145   0.37738   0.04197   1.000
    O343    O    0.68899   0.34723   0.07129   1.000
    O344    O    0.67574   0.33771   0.00536   1.000
    O345    O    0.74145   0.87738   0.04197   1.000
    O346    O    0.68898   0.84723   0.07129   1.000
    O347    O    0.67573   0.83771   0.00501   1.000
    O348    O    0.80282   0.41195   0.07086   1.000
    O349    O    0.79201   0.40755   0.01486   1.000
    O350    O    0.80281   0.91195   0.07087   1.000
    O351    O    0.79201   0.90754   0.01486   1.000
    O352    O    0.30168   0.91193   0.07098   1.000
    O353    O    0.29119   0.90749   0.01500   1.000
    O354    O    0.30170   0.41193   0.07098   1.000
    O355    O    0.29121   0.40749   0.01250   1.000
    O356    O    0.79142   0.64021   0.08467   1.000
    O357    O    0.74664   0.60079   0.11252   1.000
    O358    O    0.79143   0.14021   0.08468   1.000
    O359    O    0.74664   0.10078   0.11253   1.000
    O360    O    0.29151   0.64019   0.08478   1.000
    O361    O    0.24669   0.60077   0.11264   1.000
    O362    O    0.29151   0.14019   0.08478   1.000
    O363    O    0.24669   0.10077   0.11264   1.000
    O364    O    0.85058   0.68876   0.12357   1.000
    O365    O    0.85058   0.18875   0.12358   1.000
    O366    O    0.35069   0.68873   0.12364   1.000
    O367    O    0.35069   0.18873   0.12364   1.000
    O368    O    0.14798   0.80980   0.09711   1.000
    O369    O    0.11866   0.75768   0.13726   1.000
    O370    O    0.14799   0.30981   0.09712   1.000
    O371    O    0.11867   0.25768   0.13726   1.000
    O372    O    0.64915   0.81029   0.09756   1.000
    O373    O    0.61912   0.75806   0.13753   1.000
    O374    O    0.64917   0.31027   0.09756   1.000
    O375    O    0.61915   0.25805   0.13753   1.000
    O376    O    0.18950   0.85975   0.13346   1.000
    O377    O    0.18951   0.35976   0.13347   1.000
    O378    O    0.69195   0.35970   0.13380   1.000
    O379    O    0.69195   0.85970   0.13380   1.000
    O380    O    0.69894   0.09501   0.15422   1.000
    O381    O    0.77338   0.06394   0.15754   1.000
    O382    O    0.69893   0.59501   0.15421   1.000
    O383    O    0.77337   0.56395   0.15753   1.000
    O384    O    0.19898   0.09500   0.15432   1.000
    O385    O    0.27336   0.06387   0.15762   1.000
    O386    O    0.19898   0.59500   0.15432   1.000
    O387    O    0.27336   0.56387   0.15762   1.000
    O388    O    0.91143   0.72939   0.16507   1.000
    O389    O    0.84656   0.71416   0.18198   1.000
    O390    O    0.91144   0.22939   0.16509   1.000
    O391    O    0.84656   0.21416   0.18199   1.000
    O392    O    0.41159   0.22935   0.16514   1.000
    O393    O    0.34665   0.21420   0.18202   1.000
    O394    O    0.41159   0.72935   0.16514   1.000
    O395    O    0.34665   0.71420   0.18202   1.000
    O396    O    0.22737   0.94008   0.20670   1.000
    O397    O    0.22738   0.44008   0.20671   1.000
    O398    O    0.72938   0.43989   0.20691   1.000
    O399    O    0.72938   0.93989   0.20691   1.000
    O400    O    0.63743   0.66910   0.17402   1.000
    O401    O    0.63744   0.16909   0.17403   1.000
    O402    O    0.13733   0.66912   0.17408   1.000
    O403    O    0.13733   0.16912   0.17408   1.000
    O404    O    0.03308   0.74103   0.17731   1.000
    O405    O    0.03308   0.24103   0.17732   1.000
    O406    O    0.77932   0.52044   0.21049   1.000
    O407    O    0.77933   0.02044   0.21049   1.000
    O408    O    0.53330   0.24098   0.17736   1.000
    O409    O    0.53330   0.74098   0.17736   1.000
    O410    O    0.27889   0.02044   0.21048   1.000
    O411    O    0.27890   0.52044   0.21049   1.000
    O412    O    0.64779   0.75922   0.23895   1.000
    O413    O    0.14773   0.75924   0.23892   1.000
    O414    O    0.14773   0.25924   0.23892   1.000
    O415    O    0.64779   0.25922   0.23894   1.000
    O416    O    0.85256   0.74080   0.26037   1.000
    O417    O    0.85256   0.24080   0.26037   1.000
    O418    O    0.35261   0.74081   0.26042   1.000
    O419    O    0.35261   0.24081   0.26042   1.000
    O420    O    0.22139   0.97962   0.28892   1.000
    O421    O    0.27296   0.05994   0.29270   1.000
    O422    O    0.22139   0.47962   0.28893   1.000
    O423    O    0.27296   0.55993   0.29271   1.000
    O424    O    0.72181   0.47956   0.28890   1.000
    O425    O    0.77340   0.55987   0.29273   1.000
    O426    O    0.72181   0.97956   0.28889   1.000
    O427    O    0.77340   0.05987   0.29273   1.000
    O428    O    0.15375   0.28582   0.31738   1.000
    O429    O    0.15375   0.78581   0.31738   1.000
    O430    O    0.65372   0.28583   0.31750   1.000
    O431    O    0.65373   0.78583   0.31751   1.000
    O432    O    0.96725   0.75909   0.32207   1.000
    O433    O    0.86287   0.83101   0.32489   1.000
    O434    O    0.88175   0.74246   0.36202   1.000
    O435    O    0.96725   0.25909   0.32204   1.000
    O436    O    0.86287   0.33102   0.32490   1.000
    O437    O    0.88175   0.24246   0.36202   1.000
    O438    O    0.46734   0.25909   0.32234   1.000
    O439    O    0.36286   0.33095   0.32501   1.000
    O440    O    0.38176   0.24242   0.36207   1.000
    O441    O    0.46734   0.75909   0.32234   1.000
    O442    O    0.36286   0.83094   0.32501   1.000
    O443    O    0.38176   0.74241   0.36207   1.000
    O444    O    0.72693   0.93626   0.34155   1.000
    O445    O    0.72693   0.43627   0.34160   1.000
    O446    O    0.22688   0.93624   0.34173   1.000
    O447    O    0.22689   0.43624   0.34174   1.000
    O448    O    0.08891   0.27067   0.33435   1.000
    O449    O    0.08891   0.77067   0.33438   1.000
    O450    O    0.58902   0.77072   0.33472   1.000
    O451    O    0.58902   0.27072   0.33472   1.000
    O452    O    0.80122   0.40511   0.34459   1.000
    O453    O    0.80122   0.90511   0.34456   1.000
    O454    O    0.30117   0.40506   0.34474   1.000
    O455    O    0.30117   0.90505   0.34474   1.000
    O456    O    0.81100   0.14032   0.36595   1.000
    O457    O    0.81100   0.64032   0.36594   1.000
    O458    O    0.31092   0.14033   0.36599   1.000
    O459    O    0.31092   0.64032   0.36599   1.000
    O460    O    0.14990   0.31127   0.37581   1.000
    O461    O    0.14990   0.81127   0.37581   1.000
    O462    O    0.65011   0.31133   0.37597   1.000
    O463    O    0.65011   0.81133   0.37597   1.000
    O464    O    0.75393   0.89931   0.38651   1.000
    O465    O    0.75393   0.39932   0.38654   1.000
    O466    O    0.25376   0.39928   0.38666   1.000
    O467    O    0.25376   0.89927   0.38666   1.000
    O468    O    0.85258   0.69031   0.40222   1.000
    O469    O    0.81312   0.65296   0.42835   1.000
    O470    O    0.85258   0.19031   0.40224   1.000
    O471    O    0.81312   0.15296   0.42836   1.000
    O472    O    0.35254   0.69029   0.40227   1.000
    O473    O    0.31308   0.65294   0.42841   1.000
    O474    O    0.35253   0.19029   0.40227   1.000
    O475    O    0.31308   0.15295   0.42841   1.000
    O476    O    0.69921   0.58808   0.42828   1.000
    O477    O    0.69922   0.08808   0.42829   1.000
    O478    O    0.19915   0.58811   0.42839   1.000
    O479    O    0.19915   0.08811   0.42839   1.000
    O480    O    0.20916   0.85981   0.41462   1.000
    O481    O    0.16043   0.82733   0.44133   1.000
    O482    O    0.20916   0.35981   0.41462   1.000
    O483    O    0.16044   0.32733   0.44133   1.000
    O484    O    0.70947   0.35988   0.41463   1.000
    O485    O    0.66096   0.32743   0.44152   1.000
    O486    O    0.70947   0.85988   0.41463   1.000
    O487    O    0.66095   0.82743   0.44151   1.000
    O488    O    0.77481   0.90033   0.45136   1.000
    O489    O    0.77481   0.40033   0.45136   1.000
    O490    O    0.27437   0.40027   0.45151   1.000
    O491    O    0.27436   0.90027   0.45151   1.000
    O492    O    0.76043   0.62270   0.45739   1.000
    O493    O    0.70957   0.59249   0.48424   1.000
    O494    O    0.76044   0.12270   0.45740   1.000
    O495    O    0.70959   0.09248   0.48425   1.000
    O496    O    0.26042   0.62270   0.45748   1.000
    O497    O    0.20957   0.59251   0.48435   1.000
    O498    O    0.26041   0.12270   0.45748   1.000
    O499    O    0.20957   0.09251   0.48435   1.000
    O500    O    0.82595   0.66242   0.49421   1.000
    O501    O    0.82596   0.16242   0.49422   1.000
    O502    O    0.32597   0.66239   0.49431   1.000
    O503    O    0.32597   0.16239   0.49431   1.000
    O504    O    0.12050   0.80046   0.46881   1.000
    O505    O    0.12051   0.30046   0.46882   1.000
    O506    O    0.62120   0.80060   0.46914   1.000
    O507    O    0.62122   0.30060   0.46916   1.000
    O508    O    0.17483   0.83763   0.50516   1.000
    O509    O    0.17484   0.33763   0.50512   1.000
    O510    O    0.67573   0.83771   0.50535   1.000
    O511    O    0.67574   0.33771   0.50536   1.000
    O512    O    0.83275   0.43398   0.48746   1.000
    O513    O    0.79201   0.40755   0.51486   1.000
    O514    O    0.83275   0.93397   0.48746   1.000
    O515    O    0.79201   0.90754   0.51486   1.000
    O516    O    0.33220   0.43390   0.48775   1.000
    O517    O    0.29121   0.40749   0.51500   1.000
    O518    O    0.33219   0.93390   0.48777   1.000
    O519    O    0.29120   0.90749   0.51500   1.000
    O520    O    0.66853   0.56603   0.51142   1.000
    O521    O    0.66855   0.06602   0.51143   1.000
    O522    O    0.16854   0.06608   0.51155   1.000
    O523    O    0.16854   0.56608   0.51155   1.000
    O524    O    0.72627   0.59971   0.54771   1.000
    O525    O    0.72628   0.09971   0.54772   1.000
    O526    O    0.22632   0.59973   0.54783   1.000
    O527    O    0.22632   0.09973   0.54783   1.000
    O528    O    0.88026   0.19959   0.53059   1.000
    O529    O    0.84025   0.17270   0.55802   1.000
    O530    O    0.88025   0.69960   0.53059   1.000
    O531    O    0.84024   0.67270   0.55802   1.000
    O532    O    0.38030   0.19955   0.53067   1.000
    O533    O    0.34032   0.17266   0.55812   1.000
    O534    O    0.38030   0.69955   0.53067   1.000
    O535    O    0.34031   0.67266   0.55812   1.000
    O536    O    0.24040   0.37733   0.54190   1.000
    O537    O    0.18761   0.34712   0.57100   1.000
    O538    O    0.24039   0.87733   0.54195   1.000
    O539    O    0.18760   0.84711   0.57103   1.000
    O540    O    0.74146   0.37738   0.54197   1.000
    O541    O    0.68899   0.34722   0.57129   1.000
    O542    O    0.74145   0.87737   0.54197   1.000
    O543    O    0.68898   0.84723   0.57129   1.000
    O544    O    0.80281   0.91194   0.57087   1.000
    O545    O    0.80282   0.41195   0.57087   1.000
    O546    O    0.30170   0.41193   0.57098   1.000
    O547    O    0.30169   0.91193   0.57098   1.000
    O548    O    0.79142   0.64021   0.58467   1.000
    O549    O    0.74663   0.60079   0.61253   1.000
    O550    O    0.79143   0.14020   0.58469   1.000
    O551    O    0.74664   0.10078   0.61254   1.000
    O552    O    0.29151   0.64018   0.58478   1.000
    O553    O    0.24669   0.60077   0.61263   1.000
    O554    O    0.29151   0.14018   0.58478   1.000
    O555    O    0.24669   0.10077   0.61264   1.000
    O556    O    0.85057   0.68875   0.62357   1.000
    O557    O    0.85058   0.18875   0.62358   1.000
    O558    O    0.35069   0.68873   0.62364   1.000
    O559    O    0.35069   0.18873   0.62364   1.000
    O560    O    0.14798   0.80980   0.59711   1.000
    O561    O    0.11866   0.75768   0.63726   1.000
    O562    O    0.14799   0.30980   0.59711   1.000
    O563    O    0.11867   0.25768   0.63726   1.000
    O564    O    0.64914   0.81029   0.59755   1.000
    O565    O    0.61912   0.75806   0.63752   1.000
    O566    O    0.64918   0.31027   0.59756   1.000
    O567    O    0.61915   0.25804   0.63748   1.000
    O568    O    0.18950   0.85975   0.63347   1.000
    O569    O    0.18951   0.35975   0.63347   1.000
    O570    O    0.69195   0.35970   0.63380   1.000
    O571    O    0.69194   0.85970   0.63380   1.000
    O572    O    0.69893   0.59501   0.65421   1.000
    O573    O    0.77336   0.56395   0.65753   1.000
    O574    O    0.69894   0.09500   0.65422   1.000
    O575    O    0.77337   0.06394   0.65754   1.000
    O576    O    0.19898   0.59500   0.65431   1.000
    O577    O    0.27335   0.56387   0.65761   1.000
    O578    O    0.19898   0.09500   0.65397   1.000
    O579    O    0.27336   0.06387   0.65762   1.000
    O580    O    0.91143   0.72938   0.66507   1.000
    O581    O    0.84656   0.71416   0.68198   1.000
    O582    O    0.91143   0.22938   0.66508   1.000
    O583    O    0.84656   0.21416   0.68199   1.000
    O584    O    0.41158   0.72935   0.66514   1.000
    O585    O    0.34664   0.71420   0.68202   1.000
    O586    O    0.41159   0.22935   0.66514   1.000
    O587    O    0.34664   0.21420   0.68202   1.000
    O588    O    0.22737   0.44007   0.70671   1.000
    O589    O    0.22737   0.94007   0.70671   1.000
    O590    O    0.13733   0.16912   0.67374   1.000
    O591    O    0.72938   0.43988   0.70691   1.000
    O592    O    0.72938   0.93988   0.70691   1.000
    O593    O    0.63742   0.66910   0.67402   1.000
    O594    O    0.63743   0.16909   0.67399   1.000
    O595    O    0.13733   0.66912   0.67409   1.000
    O596    O    0.03307   0.74103   0.67731   1.000
    O597    O    0.03308   0.24103   0.67732   1.000
    O598    O    0.77932   0.52044   0.71049   1.000
    O599    O    0.77932   0.02044   0.71049   1.000
    O600    O    0.53330   0.24097   0.67732   1.000
    O601    O    0.53329   0.74098   0.67735   1.000
    O602    O    0.27889   0.52044   0.71049   1.000
    O603    O    0.27889   0.02044   0.71049   1.000
    O604    O    0.64779   0.25922   0.73890   1.000
    O605    O    0.64779   0.75922   0.73895   1.000
    O606    O    0.14773   0.75924   0.73892   1.000
    O607    O    0.14772   0.25924   0.73892   1.000
    O608    O    0.85256   0.74079   0.76036   1.000
    O609    O    0.85256   0.24080   0.76038   1.000
    O610    O    0.35261   0.74080   0.76041   1.000
    O611    O    0.35261   0.24080   0.76041   1.000
    O612    O    0.22139   0.47962   0.78889   1.000
    O613    O    0.27296   0.55993   0.79271   1.000
    O614    O    0.22138   0.97962   0.78892   1.000
    O615    O    0.27296   0.05993   0.79271   1.000
    O616    O    0.72180   0.47956   0.78890   1.000
    O617    O    0.77340   0.55986   0.79238   1.000
    O618    O    0.72180   0.97956   0.78891   1.000
    O619    O    0.77340   0.05987   0.79274   1.000
    O620    O    0.15374   0.28581   0.81739   1.000
    O621    O    0.15375   0.78581   0.81739   1.000
    O622    O    0.65372   0.28583   0.81750   1.000
    O623    O    0.65372   0.78583   0.81751   1.000
    O624    O    0.96724   0.75909   0.82207   1.000
    O625    O    0.86286   0.83101   0.82489   1.000
    O626    O    0.88175   0.74246   0.86201   1.000
    O627    O    0.96725   0.25909   0.82208   1.000
    O628    O    0.86286   0.33101   0.82490   1.000
    O629    O    0.88175   0.24246   0.86202   1.000
    O630    O    0.46733   0.25909   0.82234   1.000
    O631    O    0.36286   0.33094   0.82501   1.000
    O632    O    0.38176   0.24241   0.86207   1.000
    O633    O    0.46733   0.75909   0.82234   1.000
    O634    O    0.36286   0.83094   0.82497   1.000
    O635    O    0.38176   0.74241   0.86207   1.000
    O636    O    0.72692   0.93626   0.84160   1.000
    O637    O    0.72692   0.43626   0.84160   1.000
    O638    O    0.22688   0.43624   0.84170   1.000
    O639    O    0.22688   0.93624   0.84173   1.000
    O640    O    0.08891   0.77067   0.83439   1.000
    O641    O    0.08891   0.27067   0.83439   1.000
    O642    O    0.58902   0.77071   0.83472   1.000
    O643    O    0.58902   0.27071   0.83472   1.000
    O644    O    0.80122   0.90510   0.84459   1.000
    O645    O    0.80121   0.40511   0.84459   1.000
    O646    O    0.30116   0.90505   0.84470   1.000
    O647    O    0.30117   0.40506   0.84474   1.000
    O648    O    0.81100   0.64032   0.86559   1.000
    O649    O    0.81100   0.14032   0.86595   1.000
    O650    O    0.31092   0.64032   0.86599   1.000
    O651    O    0.31092   0.14032   0.86597   1.000
    O652    O    0.14990   0.81126   0.87581   1.000
    O653    O    0.14990   0.31127   0.87581   1.000
    O654    O    0.65011   0.81132   0.87597   1.000
    O655    O    0.65011   0.31133   0.87597   1.000
    O656    O    0.75393   0.39931   0.88655   1.000
    O657    O    0.75393   0.89931   0.88655   1.000
    O658    O    0.25376   0.39927   0.88666   1.000
    O659    O    0.25375   0.89927   0.88665   1.000
    O660    O    0.85258   0.69030   0.90223   1.000
    O661    O    0.81312   0.65295   0.92835   1.000
    O662    O    0.85258   0.19031   0.90223   1.000
    O663    O    0.81312   0.15296   0.92836   1.000
    O664    O    0.35253   0.19029   0.90225   1.000
    O665    O    0.31308   0.15294   0.92840   1.000
    O666    O    0.35254   0.69029   0.90227   1.000
    O667    O    0.31308   0.65294   0.92836   1.000
    O668    O    0.69921   0.58808   0.92823   1.000
    O669    O    0.69921   0.08808   0.92829   1.000
    O670    O    0.19915   0.58811   0.92835   1.000
    O671    O    0.19914   0.08812   0.92839   1.000
    O672    O    0.20916   0.35981   0.91462   1.000
    O673    O    0.16044   0.32733   0.94134   1.000
    O674    O    0.20915   0.85981   0.91461   1.000
    O675    O    0.16043   0.82733   0.94133   1.000
    O676    O    0.70947   0.85987   0.91463   1.000
    O677    O    0.66095   0.82743   0.94117   1.000
    O678    O    0.70947   0.35988   0.91463   1.000
    O679    O    0.66096   0.32743   0.94152   1.000
    O680    O    0.77481   0.90032   0.95137   1.000
    O681    O    0.77481   0.40033   0.95137   1.000
    O682    O    0.27435   0.90027   0.95149   1.000
    O683    O    0.27437   0.40027   0.94901   1.000
    O684    O    0.76043   0.62269   0.95739   1.000
    O685    O    0.76044   0.12269   0.95740   1.000
    O686    O    0.26042   0.62270   0.95740   1.000
    O687    O    0.26041   0.12270   0.95749   1.000
    O688    O    0.12049   0.80046   0.96881   1.000
    O689    O    0.12051   0.30046   0.96882   1.000
    O690    O    0.62120   0.80060   0.96881   1.000
    O691    O    0.62121   0.30059   0.96916   1.000
    O692    O    0.33220   0.43389   0.98526   1.000
    O693    O    0.83274   0.43398   0.98745   1.000
    O694    O    0.83275   0.93397   0.98746   1.000
    O695    O    0.33218   0.93390   0.98774   1.000
loop_
    _geom_bond_atom_site_label_1
    _geom_bond_atom_site_label_2
    _geom_bond_distance
    _geom_bond_site_symmetry_2
    _ccdc_geom_bond_type
    C70    O312      0.54473      .   S
    C190   O312      0.54473      .   S
    C68    O313      0.54473      .   S
    C188   O313      0.54473      .   S
    C64    O314      0.54479      .   S
    C184   O314      0.54479      .   S
    C66    O315      0.54472      .   S
    C186   O315      0.54472      .   S
    C190   O316      0.69760      .   S
    C150   O316      0.69760      .   S
    C190   O317      0.69809  1_554   S
    C183   O317      0.69809      .   S
    C188   O318      0.69767      .   S
    C148   O318      0.69767      .   S
    C188   O319      0.69810  1_554   S
    C181   O319      0.69810      .   S
    C184   O320      0.69797      .   S
    C144   O320      0.69797      .   S
    C184   O321      0.69774  1_554   S
    C177   O321      0.69774      .   S
    C186   O322      0.69775      .   S
    C146   O322      0.69775      .   S
    C186   O323      0.69879  1_554   S
    C179   O323      0.69879      .   S
    C166   O324      0.54420      .   S
    C54    O324      0.54420      .   S
    C166   O325      0.69812      .   S
    C158   O325      0.69812      .   S
    C166   O326      0.70126  1_554   S
    C175   O326      0.70126      .   S
    C164   O327      0.54438      .   S
    C52    O327      0.54438      .   S
    C164   O328      0.69744      .   S
    C156   O328      0.69744      .   S
    C164   O329      0.70177  1_554   S
    C173   O329      0.70177      .   S
    C162   O330      0.54438      .   S
    C50    O330      0.54438      .   S
    C162   O331      0.69744      .   S
    C154   O331      0.69744      .   S
    C162   O332      0.70243  1_554   S
    C171   O332      0.70243      .   S
    C160   O333      0.54438      .   S
    C48    O333      0.54438      .   S
    C160   O334      0.69743      .   S
    C152   O334      0.69743      .   S
    C160   O335      0.70177  1_554   S
    C169   O335      0.70177      .   S
    C98    O336      0.69941      .   S
    C106   O336      0.69941      .   S
    C98    O337      0.75261      .   S
    C138   O337      0.75261      .   S
    C98    O338      0.70186      .   S
    C91    O338      0.70186  1_556   S
    C96    O339      0.69943      .   S
    C104   O339      0.69943      .   S
    C96    O340      0.75262      .   S
    C136   O340      0.75262      .   S
    C96    O341      0.70187      .   S
    C89    O341      0.70187  1_556   S
    C100   O342      0.69939      .   S
    C108   O342      0.69939      .   S
    C100   O343      0.75241      .   S
    C140   O343      0.75241      .   S
    C100   O344      0.70174      .   S
    C93    O344      0.70174  1_556   S
    C102   O345      0.69940      .   S
    C110   O345      0.69940      .   S
    C102   O346      0.75242      .   S
    C142   O346      0.75242      .   S
    C102   O347      0.70689      .   S
    C95    O347      0.70689  1_556   S
    C108   O348      0.54323      .   S
    C36    O348      0.54323      .   S
    C108   O349      0.69810      .   S
    C117   O349      0.69810  1_556   S
    C110   O350      0.54337      .   S
    C38    O350      0.54337      .   S
    C110   O351      0.69810      .   S
    C119   O351      0.69810  1_556   S
    C106   O352      0.54334      .   S
    C34    O352      0.54334      .   S
    C106   O353      0.69831      .   S
    C115   O353      0.69831  1_556   S
    C104   O354      0.54335      .   S
    C32    O354      0.54335      .   S
    C104   O355      0.74598      .   S
    C113   O355      0.74598  1_556   S
    C150   O356      0.70606      .   S
    C158   O356      0.70606      .   S
    C150   O357      0.75171      .   S
    C198   O357      0.75171      .   S
    C148   O358      0.70610      .   S
    C156   O358      0.70610      .   S
    C148   O359      0.75150      .   S
    C196   O359      0.75150      .   S
    C146   O360      0.70615      .   S
    C154   O360      0.70615      .   S
    C146   O361      0.75159      .   S
    C194   O361      0.75159      .   S
    C144   O362      0.70615      .   S
    C152   O362      0.70615      .   S
    C144   O363      0.75159      .   S
    C192   O363      0.75159      .   S
    C158   O364      0.74598      .   S
    C206   O364      0.74598      .   S
    C156   O365      0.74599      .   S
    C204   O365      0.74599      .   S
    C154   O366      0.74600      .   S
    C202   O366      0.74600      .   S
    C152   O367      0.74601      .   S
    C200   O367      0.74601      .   S
    C250   O368      0.64435      .   S
    C138   O368      0.64435      .   S
    C250   O369      1.08907      .   S
    C10    O369      1.08907      .   S
    C248   O370      0.64436      .   S
    C136   O370      0.64436      .   S
    C248   O371      1.08901      .   S
    C8     O371      1.08901      .   S
    C254   O372      0.64441      .   S
    C142   O372      0.64441      .   S
    C254   O373      1.08888      .   S
    C14    O373      1.08888      .   S
    C252   O374      0.64440      .   S
    C140   O374      0.64440      .   S
    C252   O375      1.08899      .   S
    C12    O375      1.08899      .   S
    C138   O376      0.63254      .   S
    C258   O376      0.63254      .   S
    C136   O377      0.63247      .   S
    C256   O377      0.63247      .   S
    C140   O378      0.63245      .   S
    C260   O378      0.63245      .   S
    C142   O379      0.63244      .   S
    C262   O379      0.63244      .   S
    C196   O380      0.64009      .   S
    C268   O380      0.64009      .   S
    C196   O381      0.63820      .   S
    C276   O381      0.63820      .   S
    C198   O382      0.64004      .   S
    C270   O382      0.64004      .   S
    C198   O383      0.63817      .   S
    C278   O383      0.63817      .   S
    C192   O384      0.64004      .   S
    C264   O384      0.64004      .   S
    C192   O385      0.63824      .   S
    C272   O385      0.63824      .   S
    C194   O386      0.64006      .   S
    C266   O386      0.64006      .   S
    C194   O387      0.63824      .   S
    C274   O387      0.63824      .   S
    C206   O388      0.62963      .   S
    C294   O388      0.62963      .   S
    C206   O389      0.64626      .   S
    C286   O389      0.64626      .   S
    C204   O390      0.62963      .   S
    C292   O390      0.62963      .   S
    C204   O391      0.64628      .   S
    C284   O391      0.64628      .   S
    C200   O392      0.62969      .   S
    C288   O392      0.62969      .   S
    C200   O393      0.64626      .   S
    C280   O393      0.64626      .   S
    C202   O394      0.62968      .   S
    C290   O394      0.62968      .   S
    C202   O395      0.64626      .   S
    C282   O395      0.64626      .   S
    C258   O396      1.22713      .   S
    C16    O396      1.22713      .   S
    C256   O397      1.22708      .   S
    C18    O397      1.22708      .   S
    C260   O398      1.22403      .   S
    C22    O398      1.22403      .   S
    C262   O399      1.22416      .   S
    C20    O399      1.22416      .   S
    C270   O400      1.15541      .   S
    C14    O400      1.15541      .   S
    C268   O401      1.15540      .   S
    C12    O401      1.15540      .   S
    C266   O402      1.15603      .   S
    C10    O402      1.15603      .   S
    C264   O403      1.15603      .   S
    C8     O403      1.15603      .   S
    C294   O404      1.13234  1_655   S
    C10    O404      1.13234      .   S
    C292   O405      1.13234  1_655   S
    C8     O405      1.13234      .   S
    C278   O406      1.10022      .   S
    C22    O406      1.10022      .   S
    C276   O407      1.10022      .   S
    C20    O407      1.10022  1_565   S
    C288   O408      1.13299      .   S
    C12    O408      1.13299      .   S
    C290   O409      1.13299      .   S
    C14    O409      1.13299      .   S
    C272   O410      1.10061      .   S
    C16    O410      1.10061  1_565   S
    C274   O411      1.10069      .   S
    C18    O411      1.10069      .   S
    C14    O412      1.09557      .   S
    C238   O412      1.09557      .   S
    C10    O413      1.09563      .   S
    C234   O413      1.09563      .   S
    C8     O414      1.09562      .   S
    C232   O414      1.09562      .   S
    C12    O415      1.09533      .   S
    C236   O415      1.09533      .   S
    C286   O416      1.09549      .   S
    C6     O416      1.09549      .   S
    C284   O417      1.09550      .   S
    C4     O417      1.09550      .   S
    C282   O418      1.09553      .   S
    C2     O418      1.09553      .   S
    C280   O419      1.09552      .   S
    C0     O419      1.09552      .   S
    C16    O420      1.10140      .   S
    C226   O420      1.10140      .   S
    C16    O421      1.22831  1_565   S
    C304   O421      1.22831      .   S
    C18    O422      1.10135      .   S
    C224   O422      1.10135      .   S
    C18    O423      1.22827      .   S
    C306   O423      1.22827      .   S
    C22    O424      1.10196      .   S
    C228   O424      1.10196      .   S
    C22    O425      1.22759      .   S
    C310   O425      1.22759      .   S
    C20    O426      1.10160      .   S
    C230   O426      1.10160      .   S
    C20    O427      1.22753  1_565   S
    C308   O427      1.22753      .   S
    C232   O428      0.64619      .   S
    C128   O428      0.64619      .   S
    C234   O429      0.64623      .   S
    C130   O429      0.64623      .   S
    C236   O430      0.64645      .   S
    C132   O430      0.64645      .   S
    C238   O431      0.64631      .   S
    C134   O431      0.64631      .   S
    C6     O432      1.13211      .   S
    C242   O432      1.13211  1_455   S
    C6     O433      1.15603      .   S
    C222   O433      1.15603      .   S
    C6     O434      1.08912      .   S
    C302   O434      1.08912      .   S
    C4     O435      1.13223      .   S
    C240   O435      1.13223  1_455   S
    C4     O436      1.15602      .   S
    C220   O436      1.15602      .   S
    C4     O437      1.08911      .   S
    C300   O437      1.08911      .   S
    C0     O438      1.13218      .   S
    C244   O438      1.13218      .   S
    C0     O439      1.15610      .   S
    C216   O439      1.15610      .   S
    C0     O440      1.08880      .   S
    C296   O440      1.08880      .   S
    C2     O441      1.13218      .   S
    C246   O441      1.13218      .   S
    C2     O442      1.15610      .   S
    C218   O442      1.15610      .   S
    C2     O443      1.08890      .   S
    C298   O443      1.08890      .   S
    C230   O444      0.63803      .   S
    C126   O444      0.63803      .   S
    C228   O445      0.63811      .   S
    C124   O445      0.63811      .   S
    C226   O446      0.63825      .   S
    C122   O446      0.63825      .   S
    C224   O447      0.63821      .   S
    C120   O447      0.63821      .   S
    C240   O448      0.62950      .   S
    C128   O448      0.62950      .   S
    C242   O449      0.62959      .   S
    C130   O449      0.62959      .   S
    C246   O450      0.62957      .   S
    C134   O450      0.62957      .   S
    C244   O451      0.62957      .   S
    C132   O451      0.62957      .   S
    C220   O452      0.64038      .   S
    C124   O452      0.64038      .   S
    C222   O453      0.64008      .   S
    C126   O453      0.64008      .   S
    C216   O454      0.64025      .   S
    C120   O454      0.64025      .   S
    C218   O455      0.64027      .   S
    C122   O455      0.64027      .   S
    C308   O456      0.63257      .   S
    C212   O456      0.63257      .   S
    C310   O457      0.63250      .   S
    C214   O457      0.63250      .   S
    C304   O458      0.63254      .   S
    C208   O458      0.63254      .   S
    C306   O459      0.63254      .   S
    C210   O459      0.63254      .   S
    C128   O460      0.74608      .   S
    C80    O460      0.74608      .   S
    C130   O461      0.74607      .   S
    C82    O461      0.74607      .   S
    C132   O462      0.74613      .   S
    C84    O462      0.74613      .   S
    C134   O463      0.74612      .   S
    C86    O463      0.74612      .   S
    C126   O464      0.75211      .   S
    C78    O464      0.75211      .   S
    C124   O465      0.75156      .   S
    C76    O465      0.75156      .   S
    C120   O466      0.75181      .   S
    C72    O466      0.75181      .   S
    C122   O467      0.75179      .   S
    C74    O467      0.75179      .   S
    C214   O468      0.64434      .   S
    C302   O468      0.64434      .   S
    C214   O469      0.75226      .   S
    C174   O469      0.75226      .   S
    C212   O470      0.64434      .   S
    C300   O470      0.64434      .   S
    C212   O471      0.75225      .   S
    C172   O471      0.75225      .   S
    C210   O472      0.64435      .   S
    C298   O472      0.64435      .   S
    C210   O473      0.75230      .   S
    C170   O473      0.75230      .   S
    C208   O474      0.64436      .   S
    C296   O474      0.64436      .   S
    C208   O475      0.75231      .   S
    C168   O475      0.75231      .   S
    C62    O476      0.54324      .   S
    C182   O476      0.54324      .   S
    C60    O477      0.54323      .   S
    C180   O477      0.54323      .   S
    C58    O478      0.54333      .   S
    C178   O478      0.54333      .   S
    C56    O479      0.54326      .   S
    C176   O479      0.54326      .   S
    C82    O480      0.70618      .   S
    C74    O480      0.70618      .   S
    C82    O481      0.69732      .   S
    C90    O481      0.69732      .   S
    C80    O482      0.70617      .   S
    C72    O482      0.70617      .   S
    C80    O483      0.69740      .   S
    C88    O483      0.69740      .   S
    C84    O484      0.70613      .   S
    C76    O484      0.70613      .   S
    C84    O485      0.69738      .   S
    C92    O485      0.69738      .   S
    C86    O486      0.70614      .   S
    C78    O486      0.70614      .   S
    C86    O487      0.69730      .   S
    C94    O487      0.69730      .   S
    C78    O488      0.69780      .   S
    C118   O488      0.69780      .   S
    C76    O489      0.69781      .   S
    C116   O489      0.69781      .   S
    C72    O490      0.69779      .   S
    C112   O490      0.69779      .   S
    C74    O491      0.69778      .   S
    C114   O491      0.69778      .   S
    C182   O492      0.69934      .   S
    C174   O492      0.69934      .   S
    C182   O493      0.69813      .   S
    C191   O493      0.69813      .   S
    C180   O494      0.69935      .   S
    C172   O494      0.69935      .   S
    C180   O495      0.69813      .   S
    C189   O495      0.69813      .   S
    C178   O496      0.69933      .   S
    C170   O496      0.69933      .   S
    C178   O497      0.69806      .   S
    C187   O497      0.69806      .   S
    C176   O498      0.69933      .   S
    C168   O498      0.69933      .   S
    C176   O499      0.69805      .   S
    C185   O499      0.69805      .   S
    C174   O500      0.70124      .   S
    C167   O500      0.70124      .   S
    C172   O501      0.70117      .   S
    C165   O501      0.70117      .   S
    C170   O502      0.70176      .   S
    C163   O502      0.70176      .   S
    C168   O503      0.70175      .   S
    C161   O503      0.70175      .   S
    C26    O504      0.54436      .   S
    C90    O504      0.54436      .   S
    C24    O505      0.54436      .   S
    C88    O505      0.54436      .   S
    C30    O506      0.54431      .   S
    C94    O506      0.54431      .   S
    C28    O507      0.54436      .   S
    C92    O507      0.54436      .   S
    C90    O508      0.70184      .   S
    C99    O508      0.70184      .   S
    C88    O509      0.70118      .   S
    C97    O509      0.70118      .   S
    C94    O510      0.70180      .   S
    C103   O510      0.70180      .   S
    C92    O511      0.70173      .   S
    C101   O511      0.70173      .   S
    C116   O512      0.54474      .   S
    C44    O512      0.54474      .   S
    C116   O513      0.69812      .   S
    C109   O513      0.69812      .   S
    C118   O514      0.54474      .   S
    C46    O514      0.54474      .   S
    C118   O515      0.69814      .   S
    C111   O515      0.69814      .   S
    C112   O516      0.54481      .   S
    C40    O516      0.54481      .   S
    C112   O517      0.69824      .   S
    C105   O517      0.69824      .   S
    C114   O518      0.54475      .   S
    C42    O518      0.54475      .   S
    C114   O519      0.69825      .   S
    C107   O519      0.69825      .   S
    C71    O520      0.54473      .   S
    C191   O520      0.54473      .   S
    C69    O521      0.54474      .   S
    C189   O521      0.54474      .   S
    C65    O522      0.54472      .   S
    C185   O522      0.54472      .   S
    C67    O523      0.54473      .   S
    C187   O523      0.54473      .   S
    C191   O524      0.69766      .   S
    C151   O524      0.69766      .   S
    C189   O525      0.69767      .   S
    C149   O525      0.69767      .   S
    C187   O526      0.69774      .   S
    C147   O526      0.69774      .   S
    C185   O527      0.69774      .   S
    C145   O527      0.69774      .   S
    C165   O528      0.54418      .   S
    C53    O528      0.54418      .   S
    C165   O529      0.69822      .   S
    C157   O529      0.69822      .   S
    C167   O530      0.54421      .   S
    C55    O530      0.54421      .   S
    C167   O531      0.69812      .   S
    C159   O531      0.69812      .   S
    C161   O532      0.54436      .   S
    C49    O532      0.54436      .   S
    C161   O533      0.69744      .   S
    C153   O533      0.69744      .   S
    C163   O534      0.54435      .   S
    C51    O534      0.54435      .   S
    C163   O535      0.69745      .   S
    C155   O535      0.69745      .   S
    C97    O536      0.69923      .   S
    C105   O536      0.69923      .   S
    C97    O537      0.75336      .   S
    C137   O537      0.75336      .   S
    C99    O538      0.69941      .   S
    C107   O538      0.69941      .   S
    C99    O539      0.75262      .   S
    C139   O539      0.75262      .   S
    C101   O540      0.69939      .   S
    C109   O540      0.69939      .   S
    C101   O541      0.75241      .   S
    C141   O541      0.75241      .   S
    C103   O542      0.69940      .   S
    C111   O542      0.69940      .   S
    C103   O543      0.75242      .   S
    C143   O543      0.75242      .   S
    C111   O544      0.54330      .   S
    C39    O544      0.54330      .   S
    C109   O545      0.54330      .   S
    C37    O545      0.54330      .   S
    C105   O546      0.54335      .   S
    C33    O546      0.54335      .   S
    C107   O547      0.54334      .   S
    C35    O547      0.54334      .   S
    C151   O548      0.70610      .   S
    C159   O548      0.70610      .   S
    C151   O549      0.75158      .   S
    C199   O549      0.75158      .   S
    C149   O550      0.70610      .   S
    C157   O550      0.70610      .   S
    C149   O551      0.75159      .   S
    C197   O551      0.75159      .   S
    C147   O552      0.70615      .   S
    C155   O552      0.70615      .   S
    C147   O553      0.75151      .   S
    C195   O553      0.75151      .   S
    C145   O554      0.70616      .   S
    C153   O554      0.70616      .   S
    C145   O555      0.75158      .   S
    C193   O555      0.75158      .   S
    C159   O556      0.74599      .   S
    C207   O556      0.74599      .   S
    C157   O557      0.74599      .   S
    C205   O557      0.74599      .   S
    C155   O558      0.74600      .   S
    C203   O558      0.74600      .   S
    C153   O559      0.74600      .   S
    C201   O559      0.74600      .   S
    C251   O560      0.64436      .   S
    C139   O560      0.64436      .   S
    C251   O561      1.08908      .   S
    C11    O561      1.08908      .   S
    C249   O562      0.64438      .   S
    C137   O562      0.64438      .   S
    C249   O563      1.08901      .   S
    C9     O563      1.08901      .   S
    C255   O564      0.64440      .   S
    C143   O564      0.64440      .   S
    C255   O565      1.08898      .   S
    C15    O565      1.08898      .   S
    C253   O566      0.64440      .   S
    C141   O566      0.64440      .   S
    C253   O567      1.08815      .   S
    C13    O567      1.08815      .   S
    C139   O568      0.63254      .   S
    C259   O568      0.63254      .   S
    C137   O569      0.63255      .   S
    C257   O569      0.63255      .   S
    C141   O570      0.63245      .   S
    C261   O570      0.63245      .   S
    C143   O571      0.63243      .   S
    C263   O571      0.63243      .   S
    C199   O572      0.64005      .   S
    C271   O572      0.64005      .   S
    C199   O573      0.63818      .   S
    C279   O573      0.63818      .   S
    C197   O574      0.64004      .   S
    C269   O574      0.64004      .   S
    C197   O575      0.63818      .   S
    C277   O575      0.63818      .   S
    C195   O576      0.64010      .   S
    C267   O576      0.64010      .   S
    C195   O577      0.63826      .   S
    C275   O577      0.63826      .   S
    C193   O578      0.63665      .   S
    C265   O578      0.63665      .   S
    C193   O579      0.63824      .   S
    C273   O579      0.63824      .   S
    C207   O580      0.62963      .   S
    C295   O580      0.62963      .   S
    C207   O581      0.64626      .   S
    C287   O581      0.64626      .   S
    C205   O582      0.62964      .   S
    C293   O582      0.62964      .   S
    C205   O583      0.64628      .   S
    C285   O583      0.64628      .   S
    C203   O584      0.62969      .   S
    C291   O584      0.62969      .   S
    C203   O585      0.64626      .   S
    C283   O585      0.64626      .   S
    C201   O586      0.62970      .   S
    C289   O586      0.62970      .   S
    C201   O587      0.64627      .   S
    C281   O587      0.64627      .   S
    C257   O588      1.22707      .   S
    C19    O588      1.22707      .   S
    C259   O589      1.22717      .   S
    C17    O589      1.22717      .   S
    C265   O590      1.15618      .   S
    C9     O590      1.15618      .   S
    C261   O591      1.22404      .   S
    C23    O591      1.22404      .   S
    C263   O592      1.22416      .   S
    C21    O592      1.22416      .   S
    C271   O593      1.15542      .   S
    C15    O593      1.15542      .   S
    C269   O594      1.15540      .   S
    C13    O594      1.15540      .   S
    C267   O595      1.15603      .   S
    C11    O595      1.15603      .   S
    C295   O596      1.13233  1_655   S
    C11    O596      1.13233      .   S
    C293   O597      1.13233  1_655   S
    C9     O597      1.13233      .   S
    C279   O598      1.10021      .   S
    C23    O598      1.10021      .   S
    C277   O599      1.10022      .   S
    C21    O599      1.10022  1_565   S
    C289   O600      1.13310      .   S
    C13    O600      1.13310      .   S
    C291   O601      1.13298      .   S
    C15    O601      1.13298      .   S
    C275   O602      1.10069      .   S
    C19    O602      1.10069      .   S
    C273   O603      1.10069      .   S
    C17    O603      1.10069  1_565   S
    C13    O604      1.09607      .   S
    C237   O604      1.09607      .   S
    C15    O605      1.09557      .   S
    C239   O605      1.09557      .   S
    C11    O606      1.09563      .   S
    C235   O606      1.09563      .   S
    C9     O607      1.09562      .   S
    C233   O607      1.09562      .   S
    C287   O608      1.09549      .   S
    C7     O608      1.09549      .   S
    C285   O609      1.09550      .   S
    C5     O609      1.09550      .   S
    C283   O610      1.09553      .   S
    C3     O610      1.09553      .   S
    C281   O611      1.09553      .   S
    C1     O611      1.09553      .   S
    C19    O612      1.10066      .   S
    C225   O612      1.10066      .   S
    C19    O613      1.22827      .   S
    C307   O613      1.22827      .   S
    C17    O614      1.10133      .   S
    C227   O614      1.10133      .   S
    C17    O615      1.22826  1_565   S
    C305   O615      1.22826      .   S
    C23    O616      1.10198      .   S
    C229   O616      1.10198      .   S
    C23    O617      1.22443      .   S
    C311   O617      1.22443      .   S
    C21    O618      1.10196      .   S
    C231   O618      1.10196      .   S
    C21    O619      1.22754  1_565   S
    C309   O619      1.22754      .   S
    C233   O620      0.64618      .   S
    C129   O620      0.64618      .   S
    C235   O621      0.64622      .   S
    C131   O621      0.64622      .   S
    C237   O622      0.64644      .   S
    C133   O622      0.64644      .   S
    C239   O623      0.64630      .   S
    C135   O623      0.64630      .   S
    C7     O624      1.13211      .   S
    C243   O624      1.13211  1_455   S
    C7     O625      1.15602      .   S
    C223   O625      1.15602      .   S
    C7     O626      1.08911      .   S
    C303   O626      1.08911      .   S
    C5     O627      1.13212      .   S
    C241   O627      1.13212  1_455   S
    C5     O628      1.15602      .   S
    C221   O628      1.15602      .   S
    C5     O629      1.08911      .   S
    C301   O629      1.08911      .   S
    C1     O630      1.13219      .   S
    C245   O630      1.13219      .   S
    C1     O631      1.15610      .   S
    C217   O631      1.15610      .   S
    C1     O632      1.08890      .   S
    C297   O632      1.08890      .   S
    C3     O633      1.13219      .   S
    C247   O633      1.13219      .   S
    C3     O634      1.15609      .   S
    C219   O634      1.15609      .   S
    C3     O635      1.08891      .   S
    C299   O635      1.08891      .   S
    C231   O636      0.63811      .   S
    C127   O636      0.63811      .   S
    C229   O637      0.63810      .   S
    C125   O637      0.63810      .   S
    C225   O638      0.63850      .   S
    C121   O638      0.63850      .   S
    C227   O639      0.63825      .   S
    C123   O639      0.63825      .   S
    C243   O640      0.62960      .   S
    C131   O640      0.62960      .   S
    C241   O641      0.62961      .   S
    C129   O641      0.62961      .   S
    C247   O642      0.62957      .   S
    C135   O642      0.62957      .   S
    C245   O643      0.62958      .   S
    C133   O643      0.62958      .   S
    C223   O644      0.64039      .   S
    C127   O644      0.64039      .   S
    C221   O645      0.64039      .   S
    C125   O645      0.64039      .   S
    C219   O646      0.64067      .   S
    C123   O646      0.64067      .   S
    C217   O647      0.64026      .   S
    C121   O647      0.64026      .   S
    C311   O648      0.63775      .   S
    C215   O648      0.63775      .   S
    C309   O649      0.63249      .   S
    C213   O649      0.63249      .   S
    C307   O650      0.63247      .   S
    C211   O650      0.63247      .   S
    C305   O651      0.63223      .   S
    C209   O651      0.63223      .   S
    C131   O652      0.74607      .   S
    C83    O652      0.74607      .   S
    C129   O653      0.74608      .   S
    C81    O653      0.74608      .   S
    C135   O654      0.74612      .   S
    C87    O654      0.74612      .   S
    C133   O655      0.74612      .   S
    C85    O655      0.74612      .   S
    C125   O656      0.75157      .   S
    C77    O656      0.75157      .   S
    C127   O657      0.75156      .   S
    C79    O657      0.75156      .   S
    C121   O658      0.75182      .   S
    C73    O658      0.75182      .   S
    C123   O659      0.75162      .   S
    C75    O659      0.75162      .   S
    C215   O660      0.64434      .   S
    C303   O660      0.64434      .   S
    C215   O661      0.75226      .   S
    C175   O661      0.75226      .   S
    C213   O662      0.64433      .   S
    C301   O662      0.64433      .   S
    C213   O663      0.75235      .   S
    C173   O663      0.75235      .   S
    C209   O664      0.64430      .   S
    C297   O664      0.64430      .   S
    C209   O665      0.75269      .   S
    C169   O665      0.75269      .   S
    C211   O666      0.64433      .   S
    C299   O666      0.64433      .   S
    C211   O667      0.75154      .   S
    C171   O667      0.75154      .   S
    C63    O668      0.54389      .   S
    C183   O668      0.54389      .   S
    C61    O669      0.54331      .   S
    C181   O669      0.54331      .   S
    C59    O670      0.54275      .   S
    C179   O670      0.54275      .   S
    C57    O671      0.54334      .   S
    C177   O671      0.54334      .   S
    C81    O672      0.70616      .   S
    C73    O672      0.70616      .   S
    C81    O673      0.69739      .   S
    C89    O673      0.69739      .   S
    C83    O674      0.70621      .   S
    C75    O674      0.70621      .   S
    C83    O675      0.69732      .   S
    C91    O675      0.69732      .   S
    C87    O676      0.70614      .   S
    C79    O676      0.70614      .   S
    C87    O677      0.69070      .   S
    C95    O677      0.69070      .   S
    C85    O678      0.70613      .   S
    C77    O678      0.70613      .   S
    C85    O679      0.69737      .   S
    C93    O679      0.69737      .   S
    C79    O680      0.69781      .   S
    C119   O680      0.69781      .   S
    C77    O681      0.69782      .   S
    C117   O681      0.69782      .   S
    C75    O682      0.69786      .   S
    C115   O682      0.69786      .   S
    C73    O683      0.66189      .   S
    C113   O683      0.66189      .   S
    C183   O684      0.69934      .   S
    C175   O684      0.69934      .   S
    C181   O685      0.69934      .   S
    C173   O685      0.69934      .   S
    C179   O686      0.69935      .   S
    C171   O686      0.69935      .   S
    C177   O687      0.69933      .   S
    C169   O687      0.69933      .   S
    C27    O688      0.54436      .   S
    C91    O688      0.54436      .   S
    C25    O689      0.54435      .   S
    C89    O689      0.54435      .   S
    C31    O690      0.54597      .   S
    C95    O690      0.54597      .   S
    C29    O691      0.54436      .   S
    C93    O691      0.54436      .   S
    C113   O692      0.53608      .   S
    C41    O692      0.53608      .   S
    C117   O693      0.54480      .   S
    C45    O693      0.54480      .   S
    C119   O694      0.54474      .   S
    C47    O694      0.54474      .   S
    C115   O695      0.54479      .   S
    C43    O695      0.54479      .   S
