# CIF file generated by openbabel 2.4.90, see http://openbabel.sf.net
data_I
_chemical_name_common ''
_cell_length_a 14.039
_cell_length_b 17.601
_cell_length_c 19.954
_cell_angle_alpha 102.064
_cell_angle_beta 104.579
_cell_angle_gamma 83.83
_space_group_name_H-M_alt 'P 1'
_space_group_name_Hall 'P 1'
loop_
    _symmetry_equiv_pos_as_xyz
    x,y,z
loop_
    _atom_site_label
    _atom_site_type_symbol
    _atom_site_fract_x
    _atom_site_fract_y
    _atom_site_fract_z
    _atom_site_occupancy
    Zr0     Zr   0.38456   0.26501   0.31584   1.000
    Zr1     Zr   0.38456   0.26500   0.81584   1.000
    Zr2     Zr   0.38456   0.76501   0.31584   1.000
    Zr3     Zr   0.38456   0.76500   0.81584   1.000
    Zr4     Zr   0.88451   0.26507   0.31578   1.000
    Zr5     Zr   0.88451   0.26507   0.81578   1.000
    Zr6     Zr   0.88452   0.76507   0.31577   1.000
    Zr7     Zr   0.88451   0.76507   0.81577   1.000
    Zr8     Zr   0.11580   0.23508   0.18348   1.000
    Zr9     Zr   0.11580   0.23508   0.68348   1.000
    Zr10    Zr   0.11580   0.73508   0.18348   1.000
    Zr11    Zr   0.11580   0.73508   0.68348   1.000
    Zr12    Zr   0.61607   0.23504   0.18349   1.000
    Zr13    Zr   0.61606   0.23504   0.68340   1.000
    Zr14    Zr   0.61606   0.73504   0.18348   1.000
    Zr15    Zr   0.61606   0.73504   0.68348   1.000
    Zr16    Zr   0.25018   0.99998   0.24967   1.000
    Zr17    Zr   0.25018   0.99998   0.74968   1.000
    Zr18    Zr   0.25018   0.49998   0.24968   1.000
    Zr19    Zr   0.25018   0.49997   0.74968   1.000
    Zr20    Zr   0.75098   0.99986   0.24977   1.000
    Zr21    Zr   0.75097   0.99986   0.74977   1.000
    Zr22    Zr   0.75098   0.49986   0.24976   1.000
    Zr23    Zr   0.75097   0.49985   0.74976   1.000
    N24     N    0.73715   0.37420   0.99147   1.000
    N25     N    0.23643   0.37412   0.49146   1.000
    N26     N    0.23643   0.37412   0.99092   1.000
    N27     N    0.26434   0.62589   0.00791   1.000
    N28     N    0.23643   0.87412   0.49147   1.000
    N29     N    0.73715   0.37420   0.49148   1.000
    N30     N    0.76433   0.12588   0.50784   1.000
    N31     N    0.26434   0.12589   0.00792   1.000
    N32     N    0.76432   0.62589   0.50783   1.000
    N33     N    0.73715   0.87419   0.49147   1.000
    N34     N    0.23642   0.87412   0.99146   1.000
    N35     N    0.76432   0.62589   0.00782   1.000
    N36     N    0.73715   0.87419   0.99140   1.000
    N37     N    0.76433   0.12588   0.00784   1.000
    N38     N    0.26434   0.62589   0.50793   1.000
    N39     N    0.26434   0.12589   0.50793   1.000
    C40     C    0.26497   0.92312   0.83919   1.000
    O41     O    0.25503   0.90491   0.88912   1.000
    O42     O    0.31392   0.87703   0.83208   1.000
    O43     O    0.24318   0.95137   0.81406   1.000
    C44     C    0.38127   0.72510   0.67843   1.000
    O45     O    0.45728   0.73304   0.67789   1.000
    O46     O    0.36694   0.73295   0.71942   1.000
    O47     O    0.34439   0.69120   0.62211   1.000
    C48     C    0.16685   0.33326   0.61932   1.000
    O49     O    0.18944   0.34694   0.57528   1.000
    O50     O    0.14276   0.29547   0.62829   1.000
    O51     O    0.19711   0.38667   0.66302   1.000
    C52     C    0.38128   0.22510   0.67843   1.000
    O53     O    0.36694   0.23295   0.71942   1.000
    O54     O    0.45729   0.23304   0.67787   1.000
    O55     O    0.34440   0.19120   0.62211   1.000
    C56     C    0.73518   0.07701   0.65989   1.000
    O57     O    0.68631   0.12305   0.66694   1.000
    O58     O    0.75725   0.04872   0.68519   1.000
    O59     O    0.74534   0.09517   0.61004   1.000
    C60     C    0.23519   0.57696   0.65997   1.000
    O61     O    0.24535   0.59515   0.61013   1.000
    O62     O    0.25704   0.54870   0.68523   1.000
    O63     O    0.18626   0.62304   0.66703   1.000
    C64     C    0.16684   0.83326   0.61932   1.000
    O65     O    0.18943   0.84694   0.57529   1.000
    O66     O    0.19711   0.88667   0.66301   1.000
    O67     O    0.14275   0.79547   0.62829   1.000
    C68     C    0.33360   0.16682   0.88008   1.000
    O69     O    0.31115   0.15312   0.92412   1.000
    O70     O    0.30328   0.11338   0.83640   1.000
    O71     O    0.35768   0.20462   0.87108   1.000
    C72     C    0.83367   0.66683   0.87982   1.000
    O73     O    0.81119   0.65312   0.92395   1.000
    O74     O    0.85771   0.70464   0.87092   1.000
    O75     O    0.80353   0.61335   0.83610   1.000
    C76     C    0.26498   0.42312   0.83919   1.000
    O77     O    0.31392   0.37703   0.83210   1.000
    O78     O    0.25504   0.40491   0.88899   1.000
    O79     O    0.24318   0.45137   0.81404   1.000
    C80     C    0.88116   0.22510   0.67838   1.000
    O81     O    0.84431   0.19121   0.62204   1.000
    O82     O    0.86686   0.23295   0.71938   1.000
    O83     O    0.95712   0.23306   0.67785   1.000
    C84     C    0.76502   0.92316   0.83907   1.000
    O85     O    0.74341   0.95136   0.81399   1.000
    O86     O    0.75528   0.90495   0.88902   1.000
    O87     O    0.81394   0.87708   0.83198   1.000
    C88     C    0.88115   0.72510   0.67837   1.000
    O89     O    0.86685   0.73294   0.71937   1.000
    O90     O    0.84430   0.69121   0.62203   1.000
    O91     O    0.95711   0.73306   0.67784   1.000
    C92     C    0.11915   0.27491   0.82105   1.000
    O93     O    0.15616   0.30880   0.87721   1.000
    O94     O    0.04320   0.26700   0.82157   1.000
    O95     O    0.13344   0.26708   0.77999   1.000
    C96     C    0.23519   0.07697   0.65975   1.000
    O97     O    0.18626   0.12304   0.66674   1.000
    O98     O    0.25704   0.04870   0.68512   1.000
    O99     O    0.24535   0.09515   0.61002   1.000
    C100    C    0.61918   0.27494   0.82128   1.000
    O101    O    0.63349   0.26708   0.78009   1.000
    O102    O    0.54326   0.26701   0.82181   1.000
    O103    O    0.65641   0.30885   0.87750   1.000
    C104    C    0.76502   0.42316   0.83907   1.000
    O105    O    0.75528   0.40496   0.88904   1.000
    O106    O    0.81394   0.37709   0.83199   1.000
    O107    O    0.74341   0.45136   0.81399   1.000
    C108    C    0.66871   0.33348   0.61972   1.000
    O109    O    0.69089   0.34710   0.57555   1.000
    O110    O    0.69904   0.38668   0.66331   1.000
    O111    O    0.64393   0.29576   0.62860   1.000
    C112    C    0.61918   0.77494   0.82129   1.000
    O113    O    0.54326   0.76701   0.82181   1.000
    O114    O    0.63349   0.76708   0.78012   1.000
    O115    O    0.65641   0.80885   0.87749   1.000
    C116    C    0.83366   0.16683   0.88005   1.000
    O117    O    0.85771   0.20465   0.87104   1.000
    O118    O    0.80353   0.11335   0.83639   1.000
    O119    O    0.81119   0.15313   0.92408   1.000
    C120    C    0.11916   0.77491   0.82105   1.000
    O121    O    0.15616   0.80880   0.87734   1.000
    O122    O    0.04320   0.76700   0.82156   1.000
    O123    O    0.13344   0.76707   0.77999   1.000
    C124    C    0.73517   0.57701   0.65988   1.000
    O125    O    0.68630   0.62305   0.66695   1.000
    O126    O    0.75724   0.54873   0.68518   1.000
    O127    O    0.74532   0.59517   0.61003   1.000
    C128    C    0.66869   0.83349   0.61972   1.000
    O129    O    0.64390   0.79578   0.62862   1.000
    O130    O    0.69087   0.84710   0.57555   1.000
    O131    O    0.69903   0.88669   0.66331   1.000
    C132    C    0.33360   0.66682   0.88009   1.000
    O133    O    0.31116   0.65312   0.92412   1.000
    O134    O    0.30328   0.61337   0.83640   1.000
    O135    O    0.35768   0.70462   0.87108   1.000
    C136    C    0.66871   0.33349   0.11972   1.000
    O137    O    0.69904   0.38669   0.16331   1.000
    O138    O    0.69089   0.34710   0.07555   1.000
    O139    O    0.64393   0.29577   0.12863   1.000
    C140    C    0.73518   0.57702   0.15988   1.000
    O141    O    0.68630   0.62306   0.16695   1.000
    O142    O    0.74533   0.59518   0.11002   1.000
    O143    O    0.75725   0.54873   0.18518   1.000
    C144    C    0.16685   0.33327   0.11933   1.000
    O145    O    0.19711   0.38667   0.16302   1.000
    O146    O    0.14276   0.29547   0.12829   1.000
    O147    O    0.18944   0.34694   0.07515   1.000
    C148    C    0.61918   0.27495   0.32128   1.000
    O149    O    0.63349   0.26708   0.28011   1.000
    O150    O    0.65641   0.30886   0.37750   1.000
    O151    O    0.54326   0.26702   0.32181   1.000
    C152    C    0.11916   0.27492   0.32102   1.000
    O153    O    0.13344   0.26708   0.27997   1.000
    O154    O    0.04320   0.26701   0.32153   1.000
    O155    O    0.15616   0.30881   0.37733   1.000
    C156    C    0.23519   0.07697   0.15998   1.000
    O157    O    0.24535   0.09515   0.11013   1.000
    O158    O    0.18626   0.12305   0.16703   1.000
    O159    O    0.25704   0.04871   0.18523   1.000
    C160    C    0.38128   0.72510   0.17843   1.000
    O161    O    0.45729   0.73304   0.17789   1.000
    O162    O    0.36694   0.73295   0.21942   1.000
    O163    O    0.34440   0.69121   0.12210   1.000
    C164    C    0.73519   0.07701   0.15988   1.000
    O165    O    0.74534   0.09517   0.11004   1.000
    O166    O    0.68631   0.12305   0.16696   1.000
    O167    O    0.75726   0.04873   0.18519   1.000
    C168    C    0.61919   0.77494   0.32129   1.000
    O169    O    0.65641   0.80885   0.37750   1.000
    O170    O    0.63349   0.76708   0.28012   1.000
    O171    O    0.54326   0.76702   0.32181   1.000
    C172    C    0.76502   0.92316   0.33904   1.000
    O173    O    0.74342   0.95136   0.31396   1.000
    O174    O    0.75528   0.90496   0.38902   1.000
    O175    O    0.81395   0.87709   0.33197   1.000
    C176    C    0.16684   0.83326   0.11932   1.000
    O177    O    0.14275   0.79547   0.12829   1.000
    O178    O    0.18942   0.84694   0.07528   1.000
    O179    O    0.19711   0.88667   0.16301   1.000
    C180    C    0.33360   0.16683   0.38009   1.000
    O181    O    0.35768   0.20462   0.37108   1.000
    O182    O    0.31116   0.15312   0.42413   1.000
    O183    O    0.30328   0.11338   0.33640   1.000
    C184    C    0.83366   0.66683   0.38005   1.000
    O185    O    0.81119   0.65313   0.42407   1.000
    O186    O    0.80353   0.61335   0.33639   1.000
    O187    O    0.85771   0.70464   0.37103   1.000
    C188    C    0.88116   0.72510   0.17837   1.000
    O189    O    0.86686   0.73295   0.21937   1.000
    O190    O    0.84430   0.69121   0.12203   1.000
    O191    O    0.95712   0.73306   0.17784   1.000
    C192    C    0.11916   0.77491   0.32105   1.000
    O193    O    0.04321   0.76700   0.32156   1.000
    O194    O    0.13345   0.76708   0.27999   1.000
    O195    O    0.15616   0.80880   0.37734   1.000
    C196    C    0.33360   0.66682   0.38010   1.000
    O197    O    0.30328   0.61338   0.33640   1.000
    O198    O    0.31116   0.65312   0.42413   1.000
    O199    O    0.35768   0.70462   0.37109   1.000
    C200    C    0.26498   0.92312   0.33922   1.000
    O201    O    0.24318   0.95137   0.31407   1.000
    O202    O    0.31392   0.87703   0.33211   1.000
    O203    O    0.25504   0.90491   0.38914   1.000
    C204    C    0.88116   0.22510   0.17838   1.000
    O205    O    0.84431   0.19121   0.12205   1.000
    O206    O    0.86686   0.23295   0.21938   1.000
    O207    O    0.95712   0.23307   0.17785   1.000
    C208    C    0.38128   0.22510   0.17843   1.000
    O209    O    0.36694   0.23296   0.21942   1.000
    O210    O    0.45729   0.23304   0.17789   1.000
    O211    O    0.34440   0.19121   0.12210   1.000
    C212    C    0.66869   0.83349   0.11972   1.000
    O213    O    0.69904   0.88669   0.16332   1.000
    O214    O    0.64391   0.79578   0.12862   1.000
    O215    O    0.69088   0.84710   0.07553   1.000
    C216    C    0.83366   0.16684   0.38006   1.000
    O217    O    0.80353   0.11335   0.33640   1.000
    O218    O    0.81120   0.15313   0.42408   1.000
    O219    O    0.85771   0.20465   0.37104   1.000
    C220    C    0.23519   0.57697   0.15998   1.000
    O221    O    0.18626   0.62304   0.16703   1.000
    O222    O    0.25704   0.54870   0.18523   1.000
    O223    O    0.24536   0.59515   0.11013   1.000
    C224    C    0.26498   0.42312   0.33922   1.000
    O225    O    0.25504   0.40491   0.38914   1.000
    O226    O    0.24319   0.45137   0.31407   1.000
    O227    O    0.31392   0.37704   0.33211   1.000
    C228    C    0.76502   0.42316   0.33907   1.000
    O229    O    0.81394   0.37709   0.33199   1.000
    O230    O    0.74341   0.45136   0.31399   1.000
    O231    O    0.75528   0.40496   0.38904   1.000
loop_
    _geom_bond_atom_site_label_1
    _geom_bond_atom_site_label_2
    _geom_bond_distance
    _geom_bond_site_symmetry_2
    _ccdc_geom_bond_type
    C40    O41       1.15245      .   S
    N34    O41       2.30079      .   S
    C40    O42       1.01560      .   S
    Zr3    O42       2.10971      .   S
    C40    O43       0.76590      .   S
    Zr17   O43       1.71260      .   S
    C44    O45       1.09398      .   S
    Zr15   O45       2.20734      .   S
    C44    O46       0.87083      .   S
    Zr3    O46       1.84871      .   S
    C44    O47       1.17482      .   S
    N38    O47       2.38101      .   S
    C48    O49       1.08451      .   S
    N25    O49       2.10218      .   S
    C48    O50       0.84702      .   S
    Zr9    O50       1.80870      .   S
    C48    O51       1.17517      .   S
    Zr19   O51       2.39831      .   S
    C52    O53       0.87084      .   S
    Zr1    O53       1.84871      .   S
    C52    O54       1.09411      .   S
    Zr13   O54       2.20762      .   S
    C52    O55       1.17482      .   S
    N39    O55       2.38101      .   S
    C56    O57       1.01426      .   S
    Zr13   O57       2.10718      .   S
    C56    O58       0.76938      .   S
    Zr21   O58       1.71604  1_565   S
    C56    O59       1.15151      .   S
    N30    O59       2.29951      .   S
    C60    O61       1.15167      .   S
    N38    O61       2.29964      .   S
    C60    O62       0.76794      .   S
    Zr19   O62       1.71461      .   S
    C60    O63       1.01520      .   S
    Zr11   O63       2.10911      .   S
    C64    O65       1.08426      .   S
    N28    O65       2.10222      .   S
    C64    O66       1.17522      .   S
    Zr17   O66       2.39845      .   S
    C64    O67       0.84699      .   S
    Zr11   O67       1.80872      .   S
    C68    O69       1.08352      .   S
    N31    O69       2.10096  1_554   S
    C68    O70       1.17579      .   S
    Zr17   O70       2.40008  1_565   S
    C68    O71       0.84734      .   S
    Zr1    O71       1.80893      .   S
    C72    O73       1.08549      .   S
    N35    O73       2.10254  1_554   S
    C72    O74       0.84639      .   S
    Zr7    O74       1.80753      .   S
    C72    O75       1.17585      .   S
    Zr23   O75       2.39606      .   S
    C76    O77       1.01555      .   S
    Zr1    O77       2.10975      .   S
    C76    O78       1.14986      .   S
    N26    O78       2.29280      .   S
    C76    O79       0.76613      .   S
    Zr19   O79       1.71223      .   S
    C80    O81       1.17489      .   S
    N30    O81       2.38118      .   S
    C80    O82       0.87069      .   S
    Zr5    O82       1.84848      .   S
    C80    O83       1.09336      .   S
    Zr9    O83       2.20593  1_455   S
    C84    O85       0.76419      .   S
    Zr21   O85       1.71096      .   S
    C84    O86       1.15164      .   S
    N36    O86       2.29888      .   S
    C84    O87       1.01517      .   S
    Zr7    O87       2.10910      .   S
    C88    O89       0.87071      .   S
    Zr7    O89       1.84850      .   S
    C88    O90       1.17486      .   S
    N32    O90       2.38115      .   S
    C88    O91       1.09333      .   S
    Zr11   O91       2.20589  1_455   S
    C92    O93       1.17279      .   S
    N26    O93       2.37502      .   S
    C92    O94       1.09296      .   S
    Zr5    O94       2.20518  1_655   S
    C92    O95       0.87188      .   S
    Zr9    O95       1.85028      .   S
    C96    O97       1.01503      .   S
    Zr9    O97       2.10957      .   S
    C96    O98       0.76949      .   S
    Zr17   O98       1.71655  1_565   S
    C96    O99       1.14947      .   S
    N39    O99       2.29744      .   S
    C100   O101      0.87443      .   S
    Zr13   O101      1.85410      .   S
    C100   O102      1.09271      .   S
    Zr1    O102      2.20474      .   S
    C100   O103      1.17464      .   S
    N24    O103      2.38090      .   S
    C104   O105      1.15198      .   S
    N24    O105      2.29992      .   S
    C104   O106      1.01518      .   S
    Zr5    O106      2.10911      .   S
    C104   O107      0.76419      .   S
    Zr23   O107      1.71098      .   S
    C108   O109      1.08338      .   S
    N29    O109      2.10080      .   S
    C108   O110      1.17196      .   S
    Zr23   O110      2.39111      .   S
    C108   O111      0.85036      .   S
    Zr13   O111      1.81239      .   S
    C112   O113      1.09270      .   S
    Zr3    O113      2.20475      .   S
    C112   O114      0.87398      .   S
    Zr15   O114      1.85307      .   S
    C112   O115      1.17434      .   S
    N36    O115      2.38006      .   S
    C116   O117      0.84746      .   S
    Zr5    O117      1.80930      .   S
    C116   O118      1.17527      .   S
    Zr21   O118      2.39873  1_565   S
    C116   O119      1.08343      .   S
    N37    O119      2.10071  1_554   S
    C120   O121      1.17484      .   S
    N34    O121      2.38106      .   S
    C120   O122      1.09297      .   S
    Zr7    O122      2.20519  1_655   S
    C120   O123      0.87182      .   S
    Zr11   O123      1.85021      .   S
    C124   O125      1.01431      .   S
    Zr15   O125      2.10728      .   S
    C124   O126      0.76942      .   S
    Zr23   O126      1.71609      .   S
    C124   O127      1.15151      .   S
    N32    O127      2.29949      .   S
    C128   O129      0.85050      .   S
    Zr15   O129      1.81335      .   S
    C128   O130      1.08338      .   S
    N33    O130      2.10087      .   S
    C128   O131      1.17199      .   S
    Zr21   O131      2.39124      .   S
    C132   O133      1.08320      .   S
    N27    O133      2.10078  1_554   S
    C132   O134      1.17585      .   S
    Zr19   O134      2.40015      .   S
    C132   O135      0.84739      .   S
    Zr3    O135      1.80902      .   S
    C136   O137      1.17195      .   S
    Zr22   O137      2.39109      .   S
    C136   O138      1.08339      .   S
    N24    O138      2.10083  1_556   S
    C136   O139      0.85056      .   S
    Zr12   O139      1.81344      .   S
    C140   O141      1.01432      .   S
    Zr14   O141      2.10727      .   S
    C140   O142      1.15158      .   S
    N35    O142      2.29962      .   S
    C140   O143      0.76942      .   S
    Zr22   O143      1.71610      .   S
    C144   O145      1.17516      .   S
    Zr18   O145      2.39830      .   S
    C144   O146      0.84701      .   S
    Zr8    O146      1.80868      .   S
    C144   O147      1.08682      .   S
    N26    O147      2.10990  1_556   S
    C148   O149      0.87400      .   S
    Zr12   O149      1.85283      .   S
    C148   O150      1.17465      .   S
    N29    O150      2.38093      .   S
    C148   O151      1.09271      .   S
    Zr0    O151      2.20475      .   S
    C152   O153      0.87159      .   S
    Zr8    O153      1.85000      .   S
    C152   O154      1.09293      .   S
    Zr4    O154      2.20533  1_655   S
    C152   O155      1.17501      .   S
    N25    O155      2.38121      .   S
    C156   O157      1.15168      .   S
    N31    O157      2.29972      .   S
    C156   O158      1.01519      .   S
    Zr8    O158      2.10910      .   S
    C156   O159      0.76787      .   S
    Zr16   O159      1.71444  1_565   S
    C160   O161      1.09398      .   S
    Zr14   O161      2.20735      .   S
    C160   O162      0.87083      .   S
    Zr2    O162      1.84871      .   S
    C160   O163      1.17490      .   S
    N27    O163      2.38125      .   S
    C164   O165      1.15146      .   S
    N37    O165      2.29934      .   S
    C164   O166      1.01432      .   S
    Zr12   O166      2.10727      .   S
    C164   O167      0.76941      .   S
    Zr20   O167      1.71608  1_565   S
    C168   O169      1.17460      .   S
    N33    O169      2.38083      .   S
    C168   O170      0.87398      .   S
    Zr14   O170      1.85307      .   S
    C168   O171      1.09270      .   S
    Zr2    O171      2.20475      .   S
    C172   O173      0.76410      .   S
    Zr20   O173      1.71049      .   S
    C172   O174      1.15216      .   S
    N33    O174      2.30041      .   S
    C172   O175      1.01512      .   S
    Zr6    O175      2.10909      .   S
    C176   O177      0.84698      .   S
    Zr10   O177      1.80870      .   S
    C176   O178      1.08427      .   S
    N34    O178      2.10227  1_556   S
    C176   O179      1.17520      .   S
    Zr16   O179      2.39839      .   S
    C180   O181      0.84740      .   S
    Zr0    O181      1.80896      .   S
    C180   O182      1.08355      .   S
    N39    O182      2.10088      .   S
    C180   O183      1.17586      .   S
    Zr16   O183      2.40020  1_565   S
    C184   O185      1.08338      .   S
    N32    O185      2.10059      .   S
    C184   O186      1.17529      .   S
    Zr22   O186      2.39879      .   S
    C184   O187      0.84750      .   S
    Zr6    O187      1.80937      .   S
    C188   O189      0.87071      .   S
    Zr6    O189      1.84850      .   S
    C188   O190      1.17491      .   S
    N35    O190      2.38128      .   S
    C188   O191      1.09334      .   S
    Zr10   O191      2.20590  1_455   S
    C192   O193      1.09296      .   S
    Zr6    O193      2.20519  1_655   S
    C192   O194      0.87182      .   S
    Zr10   O194      1.85021      .   S
    C192   O195      1.17486      .   S
    N28    O195      2.38112      .   S
    C196   O197      1.17586      .   S
    Zr18   O197      2.40016      .   S
    C196   O198      1.08351      .   S
    N38    O198      2.10083      .   S
    C196   O199      0.84741      .   S
    Zr2    O199      1.80905      .   S
    C200   O201      0.76612      .   S
    Zr16   O201      1.71296      .   S
    C200   O202      1.01558      .   S
    Zr2    O202      2.10976      .   S
    C200   O203      1.15227      .   S
    N28    O203      2.30059      .   S
    C204   O205      1.17487      .   S
    N37    O205      2.38112      .   S
    C204   O206      0.87068      .   S
    Zr4    O206      1.84848      .   S
    C204   O207      1.09335      .   S
    Zr8    O207      2.20593  1_455   S
    C208   O209      0.87084      .   S
    Zr0    O209      1.84871      .   S
    C208   O210      1.09398      .   S
    Zr12   O210      2.20735      .   S
    C208   O211      1.17485      .   S
    N31    O211      2.38109      .   S
    C212   O213      1.17198      .   S
    Zr20   O213      2.39123      .   S
    C212   O214      0.85051      .   S
    Zr14   O214      1.81327      .   S
    C212   O215      1.08373      .   S
    N36    O215      2.10185  1_556   S
    C216   O217      1.17529      .   S
    Zr20   O217      2.39874  1_565   S
    C216   O218      1.08340      .   S
    N30    O218      2.10059      .   S
    C216   O219      0.84748      .   S
    Zr4    O219      1.80932      .   S
    C220   O221      1.01519      .   S
    Zr10   O221      2.10910      .   S
    C220   O222      0.76792      .   S
    Zr18   O222      1.71458      .   S
    C220   O223      1.15177      .   S
    N27    O223      2.29996      .   S
    C224   O225      1.15219      .   S
    N25    O225      2.30041      .   S
    C224   O226      0.76605      .   S
    Zr18   O226      1.71281      .   S
    C224   O227      1.01559      .   S
    Zr0    O227      2.10977      .   S
    C228   O229      1.01518      .   S
    Zr4    O229      2.10912      .   S
    C228   O230      0.76419      .   S
    Zr22   O230      1.71096      .   S
    C228   O231      1.15201      .   S
    N29    O231      2.30000      .   S
