# CIF file generated by openbabel 2.4.90, see http://openbabel.sf.net
data_I
_chemical_name_common ''
_cell_length_a 12.754
_cell_length_b 12.737
_cell_length_c 25.661
_cell_angle_alpha 90.004
_cell_angle_beta 90.026
_cell_angle_gamma 89.9
_space_group_name_H-M_alt 'P 1'
_space_group_name_Hall 'P 1'
loop_
    _symmetry_equiv_pos_as_xyz
    x,y,z
loop_
    _atom_site_label
    _atom_site_type_symbol
    _atom_site_fract_x
    _atom_site_fract_y
    _atom_site_fract_z
    _atom_site_occupancy
    Zn0     Zn   0.46213   0.56831   0.43830   1.000
    Zn1     Zn   0.56874   0.03679   0.43799   1.000
    Zn2     Zn   0.93261   0.46237   0.43817   1.000
    Zn3     Zn   0.46224   0.93301   0.06182   1.000
    Zn4     Zn   0.03855   0.56829   0.06199   1.000
    Zn5     Zn   0.93265   0.03902   0.06188   1.000
    Zn6     Zn   0.56860   0.46224   0.06170   1.000
    Zn7     Zn   0.96086   0.06715   0.56193   1.000
    Zn8     Zn   0.53787   0.43172   0.56168   1.000
    Zn9     Zn   0.43124   0.96324   0.56199   1.000
    Zn10    Zn   0.06738   0.53765   0.56179   1.000
    Zn11    Zn   0.53774   0.06698   0.93817   1.000
    Zn12    Zn   0.96144   0.43168   0.93799   1.000
    Zn13    Zn   0.06735   0.96093   0.93808   1.000
    Zn14    Zn   0.43140   0.53776   0.93820   1.000
    Zn15    Zn   0.03910   0.93287   0.43804   1.000
