# CIF file generated by openbabel 2.4.90, see http://openbabel.sf.net
data_I
_chemical_name_common ''
_cell_length_a 12.754
_cell_length_b 12.737
_cell_length_c 25.661
_cell_angle_alpha 90.004
_cell_angle_beta 90.026
_cell_angle_gamma 89.9
_space_group_name_H-M_alt 'P 1'
_space_group_name_Hall 'P 1'
loop_
    _symmetry_equiv_pos_as_xyz
    x,y,z
loop_
    _atom_site_label
    _atom_site_type_symbol
    _atom_site_fract_x
    _atom_site_fract_y
    _atom_site_fract_z
    _atom_site_occupancy
    N0      N    0.99435   0.29993   0.56338   1.000
    N1      N    0.92919   0.25108   0.24992   1.000
    N2      N    0.24968   0.93058   0.24934   1.000
    N3      N    0.70005   0.00485   0.06334   1.000
    N4      N    0.99452   0.19908   0.93616   1.000
    N5      N    0.50521   0.30008   0.93653   1.000
    N6      N    0.29998   0.99487   0.93658   1.000
    N7      N    0.19916   0.50447   0.93667   1.000
    N8      N    0.80084   0.00375   0.43656   1.000
    N9      N    0.69979   0.49544   0.43663   1.000
    N10     N    0.49433   0.80048   0.43691   1.000
    N11     N    0.00536   0.80085   0.06372   1.000
    N12     N    0.07076   0.74893   0.75003   1.000
    N13     N    0.42827   0.75105   0.75058   1.000
    N14     N    0.19912   0.99627   0.56342   1.000
    N15     N    0.30019   0.50455   0.56334   1.000
    N16     N    0.57166   0.24894   0.24938   1.000
    N17     N    0.50564   0.19955   0.56308   1.000
    N18     N    0.75026   0.06945   0.75063   1.000
    N19     N    0.75053   0.42972   0.74934   1.000
    N20     N    0.24944   0.57027   0.25064   1.000
    N21     N    0.80088   0.49530   0.06335   1.000
    N22     N    0.49476   0.69988   0.06342   1.000
    N23     N    0.00561   0.70008   0.43655   1.000
    Zr24    Zr   0.06738   0.53765   0.56179   1.000
    O25     O    0.04661   0.58992   0.52284   1.000
    O26     O    0.06589   0.60326   0.61590   1.000
    O27     O    0.14523   0.52730   0.56047   1.000
    O28     O    0.04067   0.46085   0.56076   1.000
    Zr29    Zr   0.43124   0.96324   0.56199   1.000
    O30     O    0.43274   0.89762   0.61630   1.000
    O31     O    0.45851   0.03951   0.56077   1.000
    O32     O    0.35366   0.97368   0.56063   1.000
    O33     O    0.45239   0.91085   0.52309   1.000
    Zr34    Zr   0.03910   0.93287   0.43804   1.000
    O35     O    0.09057   0.95428   0.47702   1.000
    O36     O    0.02868   0.85502   0.43938   1.000
    O37     O    0.96210   0.95893   0.43913   1.000
    O38     O    0.10415   0.93464   0.38369   1.000
    Zr39    Zr   0.56860   0.46224   0.06170   1.000
    O40     O    0.64626   0.47253   0.06044   1.000
    O41     O    0.54735   0.41006   0.02276   1.000
    O42     O    0.56674   0.39618   0.11568   1.000
    O43     O    0.54158   0.53900   0.06072   1.000
    Zr44    Zr   0.93265   0.03902   0.06188   1.000
    O45     O    0.95349   0.09047   0.02276   1.000
    O46     O    0.93409   0.10490   0.11591   1.000
    O47     O    0.95925   0.96205   0.06094   1.000
    O48     O    0.85487   0.02828   0.06053   1.000
    Zr49    Zr   0.96086   0.06715   0.56193   1.000
    O50     O    0.03787   0.04109   0.56085   1.000
    O51     O    0.90940   0.04573   0.52295   1.000
    O52     O    0.89581   0.06538   0.61628   1.000
    O53     O    0.97129   0.14500   0.56058   1.000
    Zr54    Zr   0.06735   0.96093   0.93808   1.000
    O55     O    0.14514   0.97158   0.93942   1.000
    O56     O    0.04068   0.03789   0.93900   1.000
    O57     O    0.04648   0.90947   0.97718   1.000
    O58     O    0.06588   0.89507   0.88404   1.000
    Zr59    Zr   0.03855   0.56829   0.06199   1.000
    O60     O    0.96175   0.54159   0.06085   1.000
    O61     O    0.09021   0.54679   0.02302   1.000
    O62     O    0.10367   0.56615   0.11634   1.000
    O63     O    0.02820   0.64604   0.06076   1.000
    Zr64    Zr   0.96144   0.43168   0.93799   1.000
    O65     O    0.97176   0.35392   0.93919   1.000
    O66     O    0.90980   0.45310   0.97698   1.000
    O67     O    0.03826   0.45832   0.93914   1.000
    O68     O    0.89632   0.43384   0.88365   1.000
    Zr69    Zr   0.53774   0.06698   0.93817   1.000
    O70     O    0.52766   0.14494   0.93945   1.000
    O71     O    0.60358   0.06491   0.88424   1.000
    O72     O    0.46091   0.04061   0.93920   1.000
    O73     O    0.58998   0.04607   0.97710   1.000
    Zr74    Zr   0.46213   0.56831   0.43830   1.000
    O75     O    0.41001   0.54686   0.47719   1.000
    O76     O    0.39626   0.56617   0.38432   1.000
    O77     O    0.47209   0.64593   0.43967   1.000
    O78     O    0.53891   0.54161   0.43930   1.000
    Zr79    Zr   0.56874   0.03679   0.43799   1.000
    O80     O    0.54759   0.08918   0.47690   1.000
    O81     O    0.64631   0.02635   0.43935   1.000
    O82     O    0.54147   0.96052   0.43921   1.000
    O83     O    0.56723   0.10240   0.38368   1.000
    Zr84    Zr   0.46224   0.93301   0.06182   1.000
    O85     O    0.41001   0.95384   0.02287   1.000
    O86     O    0.53908   0.95929   0.06076   1.000
    O87     O    0.47230   0.85504   0.06054   1.000
    O88     O    0.39639   0.93510   0.11575   1.000
    Zr89    Zr   0.53787   0.43172   0.56168   1.000
    O90     O    0.58998   0.45315   0.52279   1.000
    O91     O    0.46108   0.45841   0.56068   1.000
    O92     O    0.52790   0.35410   0.56031   1.000
    O93     O    0.60373   0.43385   0.61566   1.000
    Zr94    Zr   0.93261   0.46237   0.43817   1.000
    O95     O    0.85476   0.47271   0.43949   1.000
    O96     O    0.93409   0.39675   0.38405   1.000
    O97     O    0.95928   0.53916   0.43919   1.000
    O98     O    0.95337   0.41009   0.47711   1.000
    Zr99    Zr   0.43140   0.53776   0.93820   1.000
    O100    O    0.43322   0.60382   0.88423   1.000
    O101    O    0.45264   0.58992   0.97716   1.000
    O102    O    0.35376   0.52737   0.93951   1.000
    O103    O    0.45841   0.46098   0.93920   1.000
loop_
    _geom_bond_atom_site_label_1
    _geom_bond_atom_site_label_2
    _geom_bond_distance
    _geom_bond_site_symmetry_2
    _ccdc_geom_bond_type
    Zr24   O25       1.22962      .   S
    N23    O25       2.67231      .   S
    Zr24   O26       1.62073      .   S
    N12    O26       3.91050      .   S
    Zr24   O27       1.00197      .   S
    N15    O27       1.99832      .   S
    Zr24   O28       1.03664      .   S
    N0     O28       2.13512  1_655   S
    Zr29   O30       1.62509      .   S
    N13    O30       3.91971      .   S
    Zr29   O31       1.03288  1_565   S
    N17    O31       2.12705      .   S
    Zr29   O32       0.99866      .   S
    N14    O32       1.99273      .   S
    Zr29   O33       1.23055      .   S
    N10    O33       2.67412      .   S
    Zr34   O35       1.22718      .   S
    N14    O35       2.66799      .   S
    Zr34   O36       1.00127      .   S
    N23    O36       1.99709      .   S
    Zr34   O37       1.03657  1_455   S
    N8     O37       2.13441  1_545   S
    Zr34   O38       1.62331      .   S
    N2     O38       3.91652      .   S
    Zr39   O40       0.99988      .   S
    N21    O40       1.99514      .   S
    Zr39   O41       1.23031      .   S
    N5     O41       2.67366  1_556   S
    Zr39   O42       1.62102      .   S
    N16    O42       3.91042      .   S
    Zr39   O43       1.03647      .   S
    N22    O43       2.13452      .   S
    Zr44   O45       1.22833      .   S
    N4     O45       2.67009  1_556   S
    Zr44   O46       1.62076      .   S
    N1     O46       3.91071      .   S
    Zr44   O47       1.03707  1_545   S
    N11    O47       2.13605  1_455   S
    Zr44   O48       1.00222      .   S
    N3     O48       1.99883      .   S
    Zr49   O50       1.03656  1_655   S
    N14    O50       2.13440  1_565   S
    Zr49   O51       1.22713      .   S
    N8     O51       2.66786      .   S
    Zr49   O52       1.62334      .   S
    N18    O52       3.91654      .   S
    Zr49   O53       1.00123      .   S
    N0     O53       1.99698      .   S
    Zr54   O55       1.00222      .   S
    N6     O55       1.99885      .   S
    Zr54   O56       1.03725  1_565   S
    N4     O56       2.13601  1_655   S
    Zr54   O57       1.22808      .   S
    N11    O57       2.66929  1_554   S
    Zr54   O58       1.62074      .   S
    N12    O58       3.91070      .   S
    Zr59   O60       1.03783  1_455   S
    N21    O60       2.13674      .   S
    Zr59   O61       1.22853      .   S
    N7     O61       2.67041  1_556   S
    Zr59   O62       1.62305      .   S
    N20    O62       3.91555      .   S
    Zr59   O63       0.99922      .   S
    N11    O63       1.99418      .   S
    Zr64   O65       0.99937      .   S
    N4     O65       1.99449      .   S
    Zr64   O66       1.22851      .   S
    N21    O66       2.67028  1_554   S
    Zr64   O67       1.03775  1_655   S
    N7     O67       2.13659      .   S
    Zr64   O68       1.62300      .   S
    N19    O68       3.91558      .   S
    Zr69   O70       1.00151      .   S
    N5     O70       1.99761      .   S
    Zr69   O71       1.61935      .   S
    N18    O71       3.90693      .   S
    Zr69   O72       1.03677      .   S
    N6     O72       2.13554  1_565   S
    Zr69   O73       1.22952      .   S
    N3     O73       2.67191  1_554   S
    Zr74   O75       1.23023      .   S
    N15    O75       2.67310      .   S
    Zr74   O76       1.61984      .   S
    N20    O76       3.90778      .   S
    Zr74   O77       0.99765      .   S
    N10    O77       1.99054      .   S
    Zr74   O78       1.03647      .   S
    N9     O78       2.13455      .   S
    Zr79   O80       1.23057      .   S
    N17    O80       2.67417      .   S
    Zr79   O81       0.99859      .   S
    N8     O81       1.99261      .   S
    Zr79   O82       1.03289  1_545   S
    N10    O82       2.12705      .   S
    Zr79   O83       1.62512      .   S
    N16    O83       3.91988      .   S
    Zr84   O85       1.22958      .   S
    N6     O85       2.67207  1_556   S
    Zr84   O86       1.03666      .   S
    N3     O86       2.13534  1_545   S
    Zr84   O87       1.00162      .   S
    N22    O87       1.99776      .   S
    Zr84   O88       1.61924      .   S
    N2     O88       3.90667      .   S
    Zr89   O90       1.23019      .   S
    N9     O90       2.67311      .   S
    Zr89   O91       1.03647      .   S
    N15    O91       2.13456      .   S
    Zr89   O92       0.99765      .   S
    N17    O92       1.99055      .   S
    Zr89   O93       1.61987      .   S
    N19    O93       3.90777      .   S
    Zr94   O95       1.00197      .   S
    N9     O95       1.99833      .   S
    Zr94   O96       1.62084      .   S
    N1     O96       3.91075      .   S
    Zr94   O97       1.03650      .   S
    N23    O97       2.13514  1_455   S
    Zr94   O98       1.22942      .   S
    N0     O98       2.67190      .   S
    Zr99   O100      1.62068      .   S
    N13    O100      3.90944      .   S
    Zr99   O101      1.23073      .   S
    N22    O101      2.67413  1_554   S
    Zr99   O102      0.99987      .   S
    N7     O102      1.99502      .   S
    Zr99   O103      1.03655      .   S
    N5     O103      2.13459      .   S
