# CIF file generated by openbabel 2.4.90, see http://openbabel.sf.net
data_I
_chemical_name_common 'VESTA_phase_1'
_cell_length_a 14.07
_cell_length_b 15.811
_cell_length_c 26.043
_cell_angle_alpha 90.002
_cell_angle_beta 89.998
_cell_angle_gamma 93.291
_space_group_name_H-M_alt 'P 1'
_space_group_name_Hall 'P 1'
loop_
    _symmetry_equiv_pos_as_xyz
    x,y,z
loop_
    _atom_site_label
    _atom_site_type_symbol
    _atom_site_fract_x
    _atom_site_fract_y
    _atom_site_fract_z
    _atom_site_occupancy
    Cd0     Cd   0.87325   0.99553   0.03237   1.000
    Cd1     Cd   0.62083   0.99613   0.97006   1.000
    Cd2     Cd   0.12673   0.50451   0.53238   1.000
    Cd3     Cd   0.37916   0.50391   0.47005   1.000
    Cd4     Cd   0.12672   0.00450   0.96762   1.000
    Cd5     Cd   0.37915   0.00388   0.02993   1.000
    Cd6     Cd   0.87325   0.49550   0.46761   1.000
    Cd7     Cd   0.62082   0.49611   0.52994   1.000
    P8      P    0.09712   0.29158   0.24373   1.000
    P9      P    0.66394   0.74931   0.26012   1.000
    P10     P    0.90285   0.20843   0.74373   1.000
    P11     P    0.33605   0.75073   0.76013   1.000
    P12     P    0.90285   0.70845   0.75627   1.000
    P13     P    0.33604   0.25071   0.73987   1.000
    P14     P    0.09713   0.79159   0.25626   1.000
    P15     P    0.66389   0.24928   0.23987   1.000
    H16     H    0.38255   0.91425   0.19928   1.000
    H17     H    0.33519   0.84618   0.24881   1.000
    H18     H    0.42909   0.81234   0.20883   1.000
    H19     H    0.43523   0.03105   0.25951   1.000
    H20     H    0.50330   0.00341   0.31447   1.000
    H21     H    0.37925   0.97039   0.31009   1.000
    H22     H    0.67905   0.89390   0.07085   1.000
    H23     H    0.60821   0.49481   0.30075   1.000
    H24     H    0.24290   0.52537   0.36993   1.000
    H25     H    0.32931   0.30608   0.43690   1.000
    H26     H    0.86310   0.20130   0.20418   1.000
    H27     H    0.55570   0.74935   0.34987   1.000
    H28     H    0.23185   0.21482   0.37447   1.000
    H29     H    0.89569   0.79526   0.20357   1.000
    H30     H    0.50297   0.44191   0.37328   1.000
    H31     H    0.14627   0.13132   0.16560   1.000
    H32     H    0.07636   0.05690   0.08776   1.000
    H33     H    0.80446   0.12370   0.12510   1.000
    H34     H    0.14181   0.44476   0.30498   1.000
    H35     H    0.61466   0.78960   0.13600   1.000
    H36     H    0.95011   0.89598   0.13385   1.000
    H37     H    0.45393   0.68551   0.41936   1.000
    H38     H    0.39135   0.33445   0.12268   1.000
    H39     H    0.29803   0.26582   0.09617   1.000
    H40     H    0.31907   0.26696   0.16384   1.000
    H41     H    0.32889   0.46332   0.08993   1.000
    H42     H    0.20921   0.48729   0.10593   1.000
    H43     H    0.23062   0.40823   0.05877   1.000
    H44     H    0.86226   0.54330   0.22806   1.000
    H45     H    0.93197   0.50091   0.27797   1.000
    H46     H    0.86350   0.43135   0.23706   1.000
    H47     H    0.93570   0.59138   0.16070   1.000
    H48     H    0.00000   0.53494   0.12861   1.000
    H49     H    0.05708   0.60669   0.17935   1.000
    H50     H    0.78341   0.02883   0.39270   1.000
    H51     H    0.67742   0.97319   0.41514   1.000
    H52     H    0.67795   0.02472   0.35423   1.000
    H53     H    0.88454   0.92394   0.39244   1.000
    H54     H    0.87059   0.83875   0.34772   1.000
    H55     H    0.81355   0.83023   0.40866   1.000
    H56     H    0.61744   0.58574   0.69930   1.000
    H57     H    0.66478   0.65382   0.74883   1.000
    H58     H    0.57090   0.68765   0.70884   1.000
    H59     H    0.56470   0.46892   0.75953   1.000
    H60     H    0.49663   0.49659   0.81449   1.000
    H61     H    0.62069   0.52961   0.81011   1.000
    H62     H    0.32094   0.60611   0.57086   1.000
    H63     H    0.39181   0.00000   0.80075   1.000
    H64     H    0.75707   0.97467   0.86992   1.000
    H65     H    0.67068   0.19393   0.93698   1.000
    H66     H    0.13687   0.29870   0.70417   1.000
    H67     H    0.44430   0.75069   0.84987   1.000
    H68     H    0.76814   0.28519   0.87449   1.000
    H69     H    0.10430   0.70482   0.70357   1.000
    H70     H    0.49703   0.05810   0.87329   1.000
    H71     H    0.85370   0.36869   0.66566   1.000
    H72     H    0.92362   0.44311   0.58777   1.000
    H73     H    0.19551   0.37631   0.62516   1.000
    H74     H    0.85815   0.05525   0.80498   1.000
    H75     H    0.38534   0.71041   0.63610   1.000
    H76     H    0.04987   0.60410   0.63385   1.000
    H77     H    0.54607   0.81453   0.91937   1.000
    H78     H    0.60863   0.16557   0.62270   1.000
    H79     H    0.70194   0.23419   0.59618   1.000
    H80     H    0.68092   0.23306   0.66385   1.000
    H81     H    0.67109   0.03670   0.58993   1.000
    H82     H    0.79077   0.00000   0.60593   1.000
    H83     H    0.76936   0.09179   0.55878   1.000
    H84     H    0.13771   0.95674   0.72805   1.000
    H85     H    0.06800   0.99911   0.77797   1.000
    H86     H    0.13646   0.06866   0.73707   1.000
    H87     H    0.06429   0.90868   0.66068   1.000
    H88     H    0.97478   0.96509   0.62862   1.000
    H89     H    0.94292   0.89333   0.67936   1.000
    H90     H    0.21648   0.47120   0.89270   1.000
    H91     H    0.32250   0.52685   0.91513   1.000
    H92     H    0.32195   0.47529   0.85422   1.000
    H93     H    0.11540   0.57614   0.89244   1.000
    H94     H    0.12936   0.66130   0.84771   1.000
    H95     H    0.18639   0.66985   0.90865   1.000
    H96     H    0.61743   0.08574   0.80070   1.000
    H97     H    0.66478   0.15383   0.75117   1.000
    H98     H    0.57089   0.18766   0.79116   1.000
    H99     H    0.56471   0.96895   0.74047   1.000
    H100    H    0.49665   0.99661   0.68550   1.000
    H101    H    0.62070   0.02961   0.68989   1.000
    H102    H    0.32093   0.10612   0.92910   1.000
    H103    H    0.39178   0.50521   0.69925   1.000
    H104    H    0.75708   0.47466   0.63007   1.000
    H105    H    0.67067   0.69394   0.56304   1.000
    H106    H    0.13687   0.79872   0.79581   1.000
    H107    H    0.44428   0.25067   0.65012   1.000
    H108    H    0.76812   0.78520   0.62552   1.000
    H109    H    0.10429   0.20478   0.79643   1.000
    H110    H    0.49701   0.55811   0.62671   1.000
    H111    H    0.85370   0.86871   0.83434   1.000
    H112    H    0.92362   0.94313   0.91223   1.000
    H113    H    0.19551   0.87633   0.87483   1.000
    H114    H    0.85816   0.55527   0.69501   1.000
    H115    H    0.38532   0.21042   0.86391   1.000
    H116    H    0.04987   0.10405   0.86614   1.000
    H117    H    0.54605   0.31451   0.58063   1.000
    H118    H    0.60863   0.66557   0.87731   1.000
    H119    H    0.70194   0.73420   0.90382   1.000
    H120    H    0.68091   0.73306   0.83616   1.000
    H121    H    0.67110   0.53670   0.91006   1.000
    H122    H    0.79077   0.51274   0.89406   1.000
    H123    H    0.76935   0.59179   0.94122   1.000
    H124    H    0.13772   0.45673   0.77193   1.000
    H125    H    0.06800   0.49912   0.72200   1.000
    H126    H    0.13647   0.56868   0.76292   1.000
    H127    H    0.06428   0.40864   0.83928   1.000
    H128    H    0.97482   0.46509   0.87137   1.000
    H129    H    0.94289   0.39334   0.82064   1.000
    H130    H    0.21653   0.97121   0.60729   1.000
    H131    H    0.32254   0.02684   0.58486   1.000
    H132    H    0.32199   0.97531   0.64570   1.000
    H133    H    0.11542   0.07611   0.60755   1.000
    H134    H    0.12938   0.16128   0.65228   1.000
    H135    H    0.18641   0.16981   0.59134   1.000
    H136    H    0.38253   0.41432   0.30069   1.000
    H137    H    0.33519   0.34623   0.25117   1.000
    H138    H    0.42905   0.31240   0.29116   1.000
    H139    H    0.43528   0.53112   0.24045   1.000
    H140    H    0.50335   0.50344   0.18550   1.000
    H141    H    0.37928   0.47042   0.18988   1.000
    H142    H    0.67904   0.39390   0.42913   1.000
    H143    H    0.60813   0.99478   0.19924   1.000
    H144    H    0.24291   0.02535   0.13007   1.000
    H145    H    0.32927   0.80609   0.06301   1.000
    H146    H    0.86311   0.70133   0.29582   1.000
    H147    H    0.55561   0.24933   0.15014   1.000
    H148    H    0.23181   0.71483   0.12550   1.000
    H149    H    0.89567   0.29520   0.29640   1.000
    H150    H    0.50294   0.94192   0.12669   1.000
    H151    H    0.14628   0.63133   0.33433   1.000
    H152    H    0.07636   0.55691   0.41222   1.000
    H153    H    0.80447   0.62371   0.37483   1.000
    H154    H    0.14184   0.94478   0.19502   1.000
    H155    H    0.61464   0.28961   0.36300   1.000
    H156    H    0.95011   0.39592   0.36613   1.000
    H157    H    0.45388   0.18549   0.08060   1.000
    H158    H    0.39135   0.83445   0.37729   1.000
    H159    H    0.29804   0.76583   0.40381   1.000
    H160    H    0.31906   0.76696   0.33614   1.000
    H161    H    0.32890   0.96332   0.41006   1.000
    H162    H    0.20921   0.98726   0.39407   1.000
    H163    H    0.23064   0.90823   0.44122   1.000
    H164    H    0.86227   0.04329   0.27195   1.000
    H165    H    0.93198   0.00091   0.22203   1.000
    H166    H    0.86352   0.93137   0.26293   1.000
    H167    H    0.93569   0.09134   0.33933   1.000
    H168    H    0.00000   0.03494   0.37138   1.000
    H169    H    0.05704   0.10671   0.32063   1.000
    H170    H    0.78350   0.52880   0.10730   1.000
    H171    H    0.67748   0.47317   0.08486   1.000
    H172    H    0.67804   0.52472   0.14577   1.000
    H173    H    0.88456   0.42385   0.10755   1.000
    H174    H    0.87059   0.33869   0.15228   1.000
    H175    H    0.81357   0.33014   0.09134   1.000
    C176    C    0.40054   0.86683   0.22800   1.000
    C177    C    0.44602   0.98184   0.28850   1.000
    C178    C    0.72525   0.87037   0.10050   1.000
    C179    C    0.18156   0.32341   0.33475   1.000
    C180    C    0.57407   0.53855   0.32611   1.000
    C181    C    0.00850   0.16785   0.19133   1.000
    C182    C    0.23946   0.45633   0.36902   1.000
    C183    C    0.28723   0.33388   0.40681   1.000
    C184    C    0.91202   0.16872   0.17980   1.000
    C185    C    0.75154   0.78418   0.17370   1.000
    C186    C    0.54538   0.68085   0.35277   1.000
    C187    C    0.23367   0.28367   0.37245   1.000
    C188    C    0.84641   0.81426   0.17413   1.000
    C189    C    0.51519   0.50945   0.36580   1.000
    C190    C    0.07019   0.12948   0.15790   1.000
    C191    C    0.03124   0.08871   0.11475   1.000
    C192    C    0.18302   0.36851   0.17196   1.000
    C193    C    0.04671   0.42647   0.20460   1.000
    C194    C    0.58815   0.62586   0.31895   1.000
    C195    C    0.87957   0.12612   0.13580   1.000
    C196    C    0.18336   0.41166   0.33297   1.000
    C197    C    0.68914   0.81227   0.13680   1.000
    C198    C    0.87613   0.87165   0.13603   1.000
    C199    C    0.48789   0.64539   0.39160   1.000
    C200    C    0.31915   0.30614   0.12929   1.000
    C201    C    0.25550   0.43695   0.09530   1.000
    C202    C    0.90667   0.49130   0.23838   1.000
    C203    C    0.00232   0.55964   0.16560   1.000
    C204    C    0.69663   0.87151   0.31988   1.000
    C205    C    0.55420   0.86656   0.27330   1.000
    C206    C    0.72072   0.98917   0.38080   1.000
    C207    C    0.83474   0.87422   0.37730   1.000
    C208    C    0.59944   0.63316   0.72801   1.000
    C209    C    0.55393   0.51817   0.78851   1.000
    C210    C    0.27474   0.62966   0.60053   1.000
    C211    C    0.81842   0.17660   0.83476   1.000
    C212    C    0.42595   0.96149   0.82610   1.000
    C213    C    0.99148   0.33216   0.69133   1.000
    C214    C    0.76051   0.04369   0.86902   1.000
    C215    C    0.71276   0.16613   0.90683   1.000
    C216    C    0.08796   0.33128   0.67979   1.000
    C217    C    0.24845   0.71587   0.67373   1.000
    C218    C    0.45462   0.81919   0.85277   1.000
    C219    C    0.76631   0.21634   0.87246   1.000
    C220    C    0.15357   0.68581   0.67410   1.000
    C221    C    0.48482   0.99058   0.86586   1.000
    C222    C    0.92978   0.37054   0.65797   1.000
    C223    C    0.96873   0.41130   0.61476   1.000
    C224    C    0.81696   0.13150   0.67196   1.000
    C225    C    0.95326   0.07354   0.70464   1.000
    C226    C    0.41186   0.87418   0.81895   1.000
    C227    C    0.12041   0.37388   0.63580   1.000
    C228    C    0.81661   0.08835   0.83297   1.000
    C229    C    0.31086   0.68775   0.63681   1.000
    C230    C    0.12385   0.62841   0.63603   1.000
    C231    C    0.51211   0.85464   0.89161   1.000
    C232    C    0.68083   0.19388   0.62930   1.000
    C233    C    0.74448   0.06307   0.59531   1.000
    C234    C    0.09330   0.00000   0.73838   1.000
    C235    C    0.99765   0.94040   0.66565   1.000
    C236    C    0.30332   0.62854   0.81988   1.000
    C237    C    0.44577   0.63346   0.77338   1.000
    C238    C    0.27920   0.51087   0.88079   1.000
    C239    C    0.16520   0.62584   0.87730   1.000
    C240    C    0.59944   0.13317   0.77199   1.000
    C241    C    0.55394   0.01816   0.71149   1.000
    C242    C    0.27473   0.12965   0.89947   1.000
    C243    C    0.81842   0.67662   0.66524   1.000
    C244    C    0.42592   0.46147   0.67380   1.000
    C245    C    0.99148   0.83217   0.80860   1.000
    C246    C    0.76052   0.54370   0.63097   1.000
    C247    C    0.71275   0.66614   0.59318   1.000
    C248    C    0.08796   0.83130   0.82020   1.000
    C249    C    0.24844   0.21585   0.82627   1.000
    C250    C    0.45460   0.31917   0.64722   1.000
    C251    C    0.76630   0.71635   0.62755   1.000
    C252    C    0.15357   0.18577   0.82586   1.000
    C253    C    0.48480   0.49057   0.63414   1.000
    C254    C    0.92978   0.87055   0.84200   1.000
    C255    C    0.96873   0.91131   0.88524   1.000
    C256    C    0.81696   0.63151   0.82803   1.000
    C257    C    0.95326   0.57355   0.79534   1.000
    C258    C    0.41183   0.37416   0.68105   1.000
    C259    C    0.12041   0.87390   0.86419   1.000
    C260    C    0.81661   0.58836   0.66702   1.000
    C261    C    0.31084   0.18775   0.86319   1.000
    C262    C    0.12385   0.12838   0.86396   1.000
    C263    C    0.51209   0.35463   0.60839   1.000
    C264    C    0.68083   0.69388   0.87071   1.000
    C265    C    0.74448   0.56307   0.90469   1.000
    C266    C    0.09331   0.50873   0.76161   1.000
    C267    C    0.99765   0.44039   0.83433   1.000
    C268    C    0.30333   0.12852   0.68012   1.000
    C269    C    0.44577   0.13345   0.72660   1.000
    C270    C    0.27924   0.01086   0.61919   1.000
    C271    C    0.16522   0.12581   0.62200   1.000
    C272    C    0.40052   0.36689   0.27198   1.000
    C273    C    0.44605   0.48187   0.21148   1.000
    C274    C    0.72524   0.37036   0.39946   1.000
    C275    C    0.18156   0.82342   0.16523   1.000
    C276    C    0.57400   0.03852   0.17388   1.000
    C277    C    0.00850   0.66787   0.30866   1.000
    C278    C    0.23947   0.95634   0.13097   1.000
    C279    C    0.28721   0.83389   0.09316   1.000
    C280    C    0.91202   0.66874   0.32020   1.000
    C281    C    0.75152   0.28415   0.32626   1.000
    C282    C    0.54530   0.18082   0.14723   1.000
    C283    C    0.23365   0.78368   0.12753   1.000
    C284    C    0.84640   0.31422   0.32585   1.000
    C285    C    0.51514   0.00943   0.13412   1.000
    C286    C    0.07020   0.62949   0.34202   1.000
    C287    C    0.03125   0.58873   0.38523   1.000
    C288    C    0.18302   0.86852   0.32803   1.000
    C289    C    0.04672   0.92649   0.29535   1.000
    C290    C    0.58807   0.12583   0.18105   1.000
    C291    C    0.87957   0.62614   0.36419   1.000
    C292    C    0.18338   0.91168   0.16702   1.000
    C293    C    0.68912   0.31227   0.36318   1.000
    C294    C    0.87612   0.37161   0.36395   1.000
    C295    C    0.48784   0.14537   0.10830   1.000
    C296    C    0.31915   0.80614   0.37000   1.000
    C297    C    0.25550   0.93695   0.40469   1.000
    C298    C    0.90668   0.99129   0.26162   1.000
    C299    C    0.00233   0.05963   0.33435   1.000
    C300    C    0.69663   0.37146   0.18011   1.000
    C301    C    0.55420   0.36657   0.22661   1.000
    C302    C    0.72077   0.48913   0.11920   1.000
    C303    C    0.83476   0.37415   0.12269   1.000
    N304    N    0.93737   0.08528   0.10420   1.000
    N305    N    0.81711   0.89939   0.09984   1.000
    N306    N    0.47120   0.56151   0.39789   1.000
    N307    N    0.29123   0.41910   0.40503   1.000
    N308    N    0.25390   0.37369   0.13598   1.000
    N309    N    0.98584   0.49011   0.20210   1.000
    N310    N    0.75272   0.91379   0.35537   1.000
    N311    N    0.47134   0.90406   0.26332   1.000
    N312    N    0.02554   0.36586   0.24114   1.000
    N313    N    0.18533   0.30221   0.20571   1.000
    N314    N    0.12000   0.42976   0.17097   1.000
    N315    N    0.73208   0.80001   0.29967   1.000
    N316    N    0.56843   0.79358   0.24691   1.000
    N317    N    0.61274   0.90490   0.30869   1.000
    N318    N    0.06261   0.41473   0.60420   1.000
    N319    N    0.18288   0.60065   0.59985   1.000
    N320    N    0.52880   0.93852   0.89789   1.000
    N321    N    0.70874   0.08091   0.90504   1.000
    N322    N    0.74608   0.12633   0.63598   1.000
    N323    N    0.01413   0.00000   0.70210   1.000
    N324    N    0.24722   0.58627   0.85537   1.000
    N325    N    0.52862   0.59595   0.76333   1.000
    N326    N    0.97443   0.13415   0.74114   1.000
    N327    N    0.81464   0.19781   0.70572   1.000
    N328    N    0.87997   0.07025   0.67097   1.000
    N329    N    0.26790   0.70004   0.79968   1.000
    N330    N    0.43155   0.70644   0.74692   1.000
    N331    N    0.38721   0.59513   0.80869   1.000
    N332    N    0.06261   0.91475   0.89579   1.000
    N333    N    0.18287   0.10063   0.90015   1.000
    N334    N    0.52878   0.43851   0.60210   1.000
    N335    N    0.70874   0.58092   0.59496   1.000
    N336    N    0.74609   0.62634   0.86402   1.000
    N337    N    0.01413   0.50991   0.79780   1.000
    N338    N    0.24724   0.08624   0.64462   1.000
    N339    N    0.52862   0.09595   0.73667   1.000
    N340    N    0.97444   0.63416   0.75885   1.000
    N341    N    0.81465   0.69782   0.79420   1.000
    N342    N    0.87998   0.57027   0.82902   1.000
    N343    N    0.26790   0.20002   0.70032   1.000
    N344    N    0.43155   0.20643   0.75308   1.000
    N345    N    0.38722   0.09512   0.69130   1.000
    N346    N    0.93737   0.58529   0.39579   1.000
    N347    N    0.81710   0.39936   0.40014   1.000
    N348    N    0.47116   0.06149   0.10209   1.000
    N349    N    0.29123   0.91911   0.09495   1.000
    N350    N    0.25390   0.87369   0.36401   1.000
    N351    N    0.98585   0.99010   0.29790   1.000
    N352    N    0.75274   0.41373   0.14462   1.000
    N353    N    0.47135   0.40408   0.23667   1.000
    N354    N    0.02555   0.86588   0.25886   1.000
    N355    N    0.18534   0.80222   0.29428   1.000
    N356    N    0.12001   0.92977   0.32903   1.000
    N357    N    0.73203   0.29995   0.20030   1.000
    N358    N    0.56841   0.29360   0.25300   1.000
    N359    N    0.61275   0.40488   0.19130   1.000
    Cl360   Cl   0.71605   0.07969   0.04225   1.000
    Cl361   Cl   0.76403   0.89385   0.96630   1.000
    Cl362   Cl   0.96560   0.09006   0.96460   1.000
    Cl363   Cl   0.51122   0.88750   0.02628   1.000
    Cl364   Cl   0.28392   0.42032   0.54225   1.000
    Cl365   Cl   0.23596   0.60619   0.46636   1.000
    Cl366   Cl   0.03437   0.40995   0.46459   1.000
    Cl367   Cl   0.48877   0.61253   0.52630   1.000
    Cl368   Cl   0.28391   0.92032   0.95774   1.000
    Cl369   Cl   0.23595   0.10617   0.03362   1.000
    Cl370   Cl   0.03438   0.90996   0.03539   1.000
    Cl371   Cl   0.48875   0.11252   0.97370   1.000
    Cl372   Cl   0.71606   0.57970   0.45774   1.000
    Cl373   Cl   0.76402   0.39383   0.53363   1.000
    Cl374   Cl   0.96561   0.59007   0.53540   1.000
    Cl375   Cl   0.51121   0.38749   0.47370   1.000
    O376    O    0.04124   0.19949   0.23850   1.000
    O377    O    0.12875   0.27017   0.30210   1.000
    O378    O    0.64497   0.65089   0.27777   1.000
    O379    O    0.72063   0.72207   0.20928   1.000
    O380    O    0.95874   0.30052   0.73851   1.000
    O381    O    0.87123   0.22984   0.80211   1.000
    O382    O    0.35503   0.84915   0.77777   1.000
    O383    O    0.27936   0.77797   0.70929   1.000
    O384    O    0.95874   0.80054   0.76149   1.000
    O385    O    0.87123   0.72986   0.69789   1.000
    O386    O    0.35501   0.34913   0.72223   1.000
    O387    O    0.27935   0.27795   0.79071   1.000
    O388    O    0.04124   0.69951   0.26149   1.000
    O389    O    0.12875   0.77019   0.19789   1.000
    O390    O    0.64488   0.15086   0.22223   1.000
    O391    O    0.72061   0.22205   0.29070   1.000
loop_
    _geom_bond_atom_site_label_1
    _geom_bond_atom_site_label_2
    _geom_bond_distance
    _geom_bond_site_symmetry_2
    _ccdc_geom_bond_type
    Cl363  Cd1       2.67737  1_554   S
    Cd5    Cl369     2.65669      .   S
    Cd5    N349      2.45025  1_545   S
    Cd5    N348      2.42941      .   S
    Cd5    Cl368     2.62148  1_544   S
    Cd5    Cl371     2.67749  1_554   S
    Cd0    N305      2.42571      .   S
    Cd0    N304      2.48594  1_565   S
    Cd0    Cl362     2.61045  1_564   S
    Cl370  Cd4       2.61044  1_564   S
    Cl360  Cd1       2.62143  1_544   S
    H43    C201      1.10250      .   S
    H145   C279      1.09077      .   S
    H22    C178      1.08858      .   S
    H157   C295      1.08896      .   S
    H171   C302      1.10316      .   S
    H32    C191      1.08933      .   S
    H41    C201      1.10009      .   S
    H175   C303      1.10264      .   S
    C279   N349      1.34613      .   S
    C279   C283      1.38945      .   S
    N349   C278      1.34384      .   S
    C201   H42       1.09255      .   S
    C201   N308      1.45628      .   S
    H39    C200      1.10307      .   S
    N305   C178      1.34649      .   S
    N305   C198      1.34617      .   S
    C178   C197      1.39361      .   S
    N348   C295      1.34324      .   S
    N348   C285      1.34715      .   S
    N304   C191      1.34718  1_655   S
    N304   C195      1.34755      .   S
    H170   C302      1.09764      .   S
    H173   C303      1.09580      .   S
    C295   C282      1.39423      .   S
    C191   C190      1.39210      .   S
    C302   N352      1.45725      .   S
    C302   H172      1.09353      .   S
    H38    C200      1.09991      .   S
    C303   N352      1.46030      .   S
    C303   H174      1.09311      .   S
    H33    C195      1.09139      .   S
    H148   C283      1.08866      .   S
    H150   C285      1.08871  1_565   S
    C283   C275      1.39598      .   S
    H48    C203      1.03927      .   S
    C200   N308      1.45827      .   S
    C200   H40       1.09235      .   S
    H144   C278      1.08968  1_545   S
    C278   C292      1.39246      .   S
    H36    C198      1.09024      .   S
    C285   C276      1.38775      .   S
    C195   C184      1.39278      .   S
    N308   C192      1.36742      .   S
    H35    C197      1.08804      .   S
    C198   C188      1.39262      .   S
    C197   C185      1.39161      .   S
    N352   C300      1.36513      .   S
    C282   H147      1.08714      .   S
    C282   C290      1.39786      .   S
    C190   H31       1.08784      .   S
    C190   C181      1.39284      .   S
    H47    C203      1.09585  1_655   S
    C275   C292      1.39494      .   S
    C275   O389      1.38281      .   S
    C203   H49       1.09973      .   S
    C203   N309      1.46167  1_455   S
    C292   H154      1.08725      .   S
    N314   C192      1.35028      .   S
    N314   C193      1.35159      .   S
    C192   N313      1.36992      .   S
    C185   C188      1.39113      .   S
    C185   O379      1.40101      .   S
    C276   C290      1.39582      .   S
    C276   H143      1.08781  1_545   S
    C188   H29       1.08753      .   S
    C184   C181      1.39116  1_655   S
    C184   H26       1.08755      .   S
    C300   N359      1.35218      .   S
    C300   N357      1.36672      .   S
    C290   O390      1.38179      .   S
    H140   C273      1.09202      .   S
    H141   C273      1.10095      .   S
    N359   C301      1.35429      .   S
    C181   O376      1.39466      .   S
    O389   P14       1.62499      .   S
    H16    C176      1.09882      .   S
    N357   P15       1.59205      .   S
    N309   C193      1.35981  1_655   S
    N309   C202      1.46165      .   S
    C193   N312      1.37111      .   S
    N313   P8        1.58904      .   S
    H18    C176      1.09209      .   S
    O379   P9        1.61679      .   S
    C273   N353      1.45597      .   S
    C273   H139      1.10096      .   S
    H165   C298      1.09852  1_545   S
    O390   P15       1.62988      .   S
    C301   N353      1.36334      .   S
    C301   N358      1.36749      .   S
    C176   H17       1.10051      .   S
    C176   N311      1.45522      .   S
    H44    C202      1.09434      .   S
    N353   C272      1.45508      .   S
    H46    C202      1.09655      .   S
    C202   H45       1.09849      .   S
    O376   P8        1.62028      .   S
    P15    N358      1.58769      .   S
    P15    O391      1.61676      .   S
    N312   P8        1.59194      .   S
    P8     O377      1.62503      .   S
    N316   P9        1.58817      .   S
    N316   C205      1.36761      .   S
    H137   C272      1.10046      .   S
    P14    N354      1.59193      .   S
    P14    O388      1.62028      .   S
    P14    N355      1.58908      .   S
    N354   C289      1.37018      .   S
    H19    C177      1.10089  1_545   S
    P9     O378      1.62985      .   S
    P9     N315      1.59198      .   S
    O388   C277      1.39465      .   S
    C298   H166      1.09610      .   S
    C298   H164      1.09438  1_565   S
    C298   N351      1.46164      .   S
    N311   C205      1.36290      .   S
    N311   C177      1.45596      .   S
    C272   H138      1.09207      .   S
    C272   H136      1.09881      .   S
    C205   N317      1.35576      .   S
    O378   C194      1.38187      .   S
    C177   H21       1.10083      .   S
    C177   H20       1.09166  1_565   S
    O391   C281      1.40063      .   S
    N355   C288      1.36987      .   S
    C289   N351      1.35958  1_455   S
    C289   N356      1.35248      .   S
    H146   C280      1.08762      .   S
    H149   C284      1.08774      .   S
    N351   C299      1.46083  1_665   S
    N315   C204      1.36684      .   S
    H23    C180      1.08782      .   S
    O377   C179      1.38270      .   S
    H34    C196      1.08726      .   S
    C277   C280      1.39118  1_455   S
    C277   C286      1.39180      .   S
    N317   C204      1.35220      .   S
    C194   C180      1.39581      .   S
    C194   C186      1.39782      .   S
    C204   N310      1.36505      .   S
    C280   C291      1.39259      .   S
    H169   C299      1.09935      .   S
    C284   C281      1.39114      .   S
    C284   C294      1.39262      .   S
    C180   C189      1.38657      .   S
    C281   C293      1.39199      .   S
    C288   N356      1.35027      .   S
    C288   N350      1.36745      .   S
    C196   C179      1.39493      .   S
    C196   C182      1.39252      .   S
    H151   C286      1.08778      .   S
    C299   H167      1.09601  1_455   S
    C299   H168      1.04022      .   S
    C179   C187      1.39620      .   S
    H160   C296      1.07758      .   S
    C286   C287      1.39335      .   S
    H54    C207      1.09302      .   S
    H27    C186      1.08713      .   S
    C186   C199      1.39253      .   S
    H52    C206      1.09343  1_545   S
    N310   C207      1.46023      .   S
    N310   C206      1.45726      .   S
    H155   C293      1.08784      .   S
    C293   C274      1.39326      .   S
    C294   H156      1.09024      .   S
    C294   N347      1.34619      .   S
    N350   C296      1.45621      .   S
    N350   C297      1.45624      .   S
    C291   H153      1.09095      .   S
    C291   N346      1.34766      .   S
    C189   H30       1.08944      .   S
    C189   N306      1.34812      .   S
    C182   H24       1.09014      .   S
    C182   N307      1.34386      .   S
    C296   H158      1.10285      .   S
    C296   H159      1.11716      .   S
    C187   H28       1.08868      .   S
    C187   C183      1.38932      .   S
    C207   H53       1.09583      .   S
    C207   H55       1.10274      .   S
    C206   H50       1.09728  1_565   S
    C206   H51       1.10316      .   S
    C287   N346      1.34721  1_455   S
    C287   H152      1.08939      .   S
    C199   N306      1.34351      .   S
    C199   H37       1.09000      .   S
    H162   C297      1.09223      .   S
    N346   Cd6       2.48614      .   S
    N306   Cd3       2.42957      .   S
    C274   N347      1.34650      .   S
    C274   H142      1.08897      .   S
    N347   Cd6       2.42570      .   S
    C297   H161      1.10010      .   S
    C297   H163      1.10250      .   S
    N307   C183      1.34612      .   S
    N307   Cd3       2.45054      .   S
    C183   H25       1.08982      .   S
    Cl372  Cd7       2.62194      .   S
    Cl366  Cd2       2.61114      .   S
    Cl365  Cd3       2.65671      .   S
    Cd6    Cl374     2.61114      .   S
    Cd3    Cl367     2.67768      .   S
    Cd3    Cl364     2.62196      .   S
    Cl375  Cd7       2.67755      .   S
    Cd7    Cl373     2.65668      .   S
    Cd7    N335      2.45056      .   S
    Cd7    N334      2.42958      .   S
    Cd2    N319      2.42570      .   S
    Cd2    N318      2.48610      .   S
    H83    C233      1.10252      .   S
    H105   C247      1.09075      .   S
    H62    C210      1.08899      .   S
    H117   C263      1.08998      .   S
    H131   C270      1.10303      .   S
    H72    C223      1.08939      .   S
    H81    C233      1.10012      .   S
    H135   C271      1.08932      .   S
    C247   N335      1.34612      .   S
    C247   C251      1.38949      .   S
    N335   C246      1.34384      .   S
    C233   H82       1.25286      .   S
    C233   N322      1.45605      .   S
    H79    C232      1.10307      .   S
    N319   C210      1.34649      .   S
    N319   C230      1.34606      .   S
    C210   C229      1.39325      .   S
    N334   C263      1.34353      .   S
    N334   C253      1.34730      .   S
    N318   C223      1.34721  1_455   S
    N318   C227      1.34765      .   S
    H130   C270      1.09723  1_565   S
    H133   C271      1.08950      .   S
    C263   C250      1.39251      .   S
    C223   C222      1.39335      .   S
    C270   N338      1.45724      .   S
    C270   H132      1.09244  1_545   S
    C271   N338      1.46737      .   S
    C271   H134      1.10591      .   S
    H78    C232      1.09988      .   S
    H73    C227      1.09095      .   S
    H108   C251      1.08869      .   S
    H110   C253      1.08921      .   S
    C251   C243      1.39599      .   S
    H88    C235      1.09570      .   S
    C232   N322      1.45824      .   S
    C232   H80       1.09234      .   S
    H104   C246      1.09012      .   S
    C246   C260      1.39252      .   S
    H76    C230      1.09023      .   S
    C253   C244      1.38596      .   S
    C227   C216      1.39259      .   S
    N322   C224      1.36744      .   S
    C230   C220      1.39207      .   S
    H75    C229      1.08801      .   S
    C229   C217      1.39203      .   S
    N338   C268      1.36524      .   S
    C250   H107      1.08713      .   S
    C250   C258      1.39797      .   S
    C222   H71       1.08777      .   S
    C222   C213      1.39180      .   S
    H87    C235      1.09601  1_455   S
    C243   C260      1.39495      .   S
    C243   O385      1.38270      .   S
    C235   H89       1.09932      .   S
    C235   N323      1.34826  1_665   S
    C260   H114      1.08723      .   S
    N328   C224      1.35027      .   S
    N328   C225      1.35231      .   S
    C224   N327      1.37003      .   S
    C217   C220      1.39113      .   S
    C217   O383      1.40064      .   S
    C244   C258      1.39613      .   S
    C244   H103      1.08923      .   S
    C220   H69       1.08813      .   S
    C216   C213      1.39118  1_455   S
    C216   H66       1.08761      .   S
    C268   N345      1.35216      .   S
    C268   N343      1.36672      .   S
    C258   O386      1.38183      .   S
    H100   C241      1.09195  1_565   S
    H101   C241      1.10098      .   S
    N345   C269      1.35419      .   S
    C213   O380      1.39486      .   S
    O385   P12       1.62529      .   S
    H56    C208      1.09873      .   S
    N343   P13       1.59199      .   S
    N323   C225      1.48462  1_455   S
    N323   C234      1.46069      .   S
    C225   N326      1.37037      .   S
    N327   P10       1.58893      .   S
    H58    C208      1.09201      .   S
    O383   P11       1.61684      .   S
    C241   N339      1.45592      .   S
    C241   H99       1.10077  1_545   S
    H125   C266      1.09899      .   S
    O386   P13       1.62979      .   S
    C269   N339      1.36338      .   S
    C269   N344      1.36875      .   S
    C208   H57       1.10060      .   S
    C208   N325      1.45527      .   S
    H84    C234      0.98981  1_565   S
    N339   C240      1.45525      .   S
    H86    C234      1.21349      .   S
    C234   H85       1.09062  1_545   S
    O380   P10       1.62026      .   S
    P13    N344      1.58819      .   S
    P13    O387      1.61677      .   S
    N326   P10       1.59193      .   S
    P10    O381      1.62523      .   S
    N330   P11       1.58819      .   S
    N330   C237      1.36849      .   S
    H97    C240      1.10062      .   S
    P12    N340      1.59193      .   S
    P12    O384      1.62026      .   S
    P12    N341      1.58755      .   S
    N340   C257      1.37023      .   S
    H59    C209      1.10107      .   S
    P11    O382      1.62978      .   S
    P11    N329      1.59194      .   S
    O384   C245      1.39327      .   S
    C266   H126      1.09654      .   S
    C266   H124      1.09435      .   S
    C266   N337      1.46012      .   S
    N325   C237      1.36328      .   S
    N325   C209      1.45592      .   S
    C240   H98       1.09202      .   S
    C240   H96       1.09873      .   S
    C237   N331      1.35438      .   S
    O382   C226      1.38189      .   S
    C209   H61       1.10097      .   S
    C209   H60       1.09202      .   S
    O387   C249      1.40068      .   S
    N341   C256      1.37131      .   S
    C257   N337      1.35976  1_655   S
    C257   N342      1.35241      .   S
    H106   C248      1.08771      .   S
    H109   C252      1.08737      .   S
    N337   C267      1.46218  1_455   S
    N329   C236      1.36678      .   S
    H63    C212      1.03483  1_545   S
    O381   C211      1.38271      .   S
    H74    C228      1.08714      .   S
    C245   C248      1.39155  1_655   S
    C245   C254      1.39238      .   S
    N331   C236      1.35221      .   S
    C226   C212      1.39579      .   S
    C226   C218      1.39784      .   S
    C236   N324      1.36510      .   S
    C248   C259      1.39257      .   S
    H129   C267      1.09924      .   S
    C252   C249      1.39112      .   S
    C252   C262      1.39265      .   S
    C212   C221      1.38791      .   S
    C249   C261      1.39200      .   S
    C256   N342      1.35026      .   S
    C256   N336      1.36759      .   S
    C228   C211      1.39493      .   S
    C228   C214      1.39250      .   S
    C267   H127      1.09602  1_655   S
    C267   H128      1.09571      .   S
    H111   C254      1.08764      .   S
    C211   C219      1.39606      .   S
    H120   C264      1.09237      .   S
    C254   C255      1.39398      .   S
    H94    C239      1.09314      .   S
    H67    C218      1.08714      .   S
    C218   C231      1.39269      .   S
    H92    C238      1.09356      .   S
    N324   C239      1.46027      .   S
    N324   C238      1.45718      .   S
    C261   H115      1.08801      .   S
    C261   C242      1.39329      .   S
    C262   H116      1.09023      .   S
    C262   N333      1.34621      .   S
    N336   C264      1.45826      .   S
    N336   C265      1.45615      .   S
    C259   H113      1.09096      .   S
    C259   N332      1.34759      .   S
    C221   H70       1.08874  1_565   S
    C221   N320      1.34717      .   S
    C214   H64       1.08968  1_545   S
    C214   N321      1.34389      .   S
    C264   H118      1.09987      .   S
    C264   H119      1.10285      .   S
    C219   H68       1.08866      .   S
    C219   C215      1.38949      .   S
    C239   H93       1.09579      .   S
    C239   H95       1.10262      .   S
    C238   H90       1.09767      .   S
    C238   H91       1.10322      .   S
    C255   N332      1.34716  1_655   S
    C255   H112      1.08934      .   S
    C231   N320      1.34347      .   S
    C231   H77       1.09000      .   S
    H122   C265      1.09254      .   S
    N332   Cd4       2.48591  1_565   S
    N320   Cd1       2.42970      .   S
    C242   N333      1.34649      .   S
    C242   H102      1.08824      .   S
    N333   Cd4       2.42573      .   S
    C265   H121      1.10008      .   S
    C265   H123      1.10247      .   S
    N321   C215      1.34613      .   S
    N321   Cd1       2.45028  1_545   S
    C215   H65       1.09083      .   S
    Cl361  Cd1       2.65673      .   S
