# CIF file generated by openbabel 2.4.90, see http://openbabel.sf.net
data_I
_chemical_name_common ''
_cell_length_a 18.942
_cell_length_b 18.96
_cell_length_c 18.965
_cell_angle_alpha 59.983
_cell_angle_beta 60.023
_cell_angle_gamma 60.017
_space_group_name_H-M_alt 'P 1'
_space_group_name_Hall 'P 1'
loop_
    _symmetry_equiv_pos_as_xyz
    x,y,z
loop_
    _atom_site_label
    _atom_site_type_symbol
    _atom_site_fract_x
    _atom_site_fract_y
    _atom_site_fract_z
    _atom_site_occupancy
    Lv0     Lv   0.84264   0.47264   0.84223   1.000
    Lv1     Lv   0.47296   0.84237   0.84225   1.000
    Lv2     Lv   0.15745   0.52734   0.15781   1.000
    Lv3     Lv   0.15719   0.15754   0.52792   1.000
    Lv4     Lv   0.84273   0.84285   0.84265   1.000
    Lv5     Lv   0.52702   0.15756   0.15762   1.000
    Lv6     Lv   0.84271   0.84243   0.47201   1.000
    Lv7     Lv   0.15721   0.15726   0.15721   1.000
