# CIF file generated by openbabel 2.4.90, see http://openbabel.sf.net
data_I
_chemical_name_common ''
_cell_length_a 18.942
_cell_length_b 18.96
_cell_length_c 18.965
_cell_angle_alpha 59.983
_cell_angle_beta 60.023
_cell_angle_gamma 60.017
_space_group_name_H-M_alt 'P 1'
_space_group_name_Hall 'P 1'
loop_
    _symmetry_equiv_pos_as_xyz
    x,y,z
loop_
    _atom_site_label
    _atom_site_type_symbol
    _atom_site_fract_x
    _atom_site_fract_y
    _atom_site_fract_z
    _atom_site_occupancy
    Zn0     Zn   0.06762   0.50020   0.93240   1.000
    Zn1     Zn   0.49976   0.93252   0.49999   1.000
    Zn2     Zn   0.93237   0.50002   0.06750   1.000
    Zn3     Zn   0.49990   0.49989   0.93245   1.000
    Zn4     Zn   0.06759   0.93236   0.49993   1.000
    Zn5     Zn   0.50023   0.50000   0.06739   1.000
    Zn6     Zn   0.93239   0.06760   0.49986   1.000
    Zn7     Zn   0.49990   0.93234   0.06750   1.000
    Zn8     Zn   0.06760   0.50006   0.50007   1.000
    Zn9     Zn   0.49999   0.06762   0.93239   1.000
    Zn10    Zn   0.93236   0.49986   0.50000   1.000
    Zn11    Zn   0.50015   0.06758   0.49990   1.000
    C12     C    0.66489   0.92912   0.47614   1.000
    C13     C    0.92925   0.66504   0.92963   1.000
    C14     C    0.47715   0.92949   0.66455   1.000
    C15     C    0.92968   0.47705   0.92866   1.000
    C16     C    0.66492   0.47647   0.92937   1.000
    C17     C    0.92935   0.92917   0.47654   1.000
    C18     C    0.47694   0.66467   0.92886   1.000
    C19     C    0.92960   0.92921   0.66476   1.000
    C20     C    0.66494   0.92990   0.92911   1.000
    C21     C    0.92922   0.47687   0.66460   1.000
    C22     C    0.47702   0.92883   0.92939   1.000
    C23     C    0.92966   0.66476   0.47622   1.000
    C24     C    0.07053   0.33517   0.52381   1.000
    C25     C    0.33496   0.07070   0.07020   1.000
    C26     C    0.07051   0.52306   0.33545   1.000
    C27     C    0.52290   0.07050   0.07110   1.000
    C28     C    0.52309   0.33524   0.07039   1.000
    C29     C    0.07019   0.07120   0.52300   1.000
    C30     C    0.33520   0.52344   0.07113   1.000
    C31     C    0.07082   0.07036   0.33506   1.000
    C32     C    0.07024   0.33514   0.07080   1.000
    C33     C    0.52281   0.07103   0.33534   1.000
    C34     C    0.07080   0.52309   0.07090   1.000
    C35     C    0.33501   0.07050   0.52378   1.000
    O36     O    0.62867   0.00603   0.47866   1.000
    O37     O    0.00617   0.62872   0.88651   1.000
    O38     O    0.47944   0.88651   0.62827   1.000
    O39     O    0.88657   0.47953   0.00555   1.000
    O40     O    0.62846   0.47892   0.88640   1.000
    O41     O    0.00629   0.88599   0.47918   1.000
    O42     O    0.47956   0.62835   0.00574   1.000
    O43     O    0.88647   0.00612   0.62836   1.000
    O44     O    0.62853   0.88677   0.00597   1.000
    O45     O    0.00616   0.47950   0.62834   1.000
    O46     O    0.47958   0.00576   0.88636   1.000
    O47     O    0.88655   0.62838   0.47877   1.000
    O48     O    0.99358   0.37142   0.52121   1.000
    O49     O    0.37129   0.99371   0.11326   1.000
    O50     O    0.11359   0.52067   0.37170   1.000
    O51     O    0.52045   0.11362   0.99419   1.000
    O52     O    0.52076   0.37161   0.11331   1.000
    O53     O    0.11331   0.99433   0.52065   1.000
    O54     O    0.37145   0.52085   0.99428   1.000
    O55     O    0.99394   0.11352   0.37141   1.000
    O56     O    0.11338   0.37161   0.99398   1.000
    O57     O    0.52015   0.99414   0.37171   1.000
    O58     O    0.99386   0.52048   0.11398   1.000
    O59     O    0.37151   0.11352   0.52119   1.000
    O60     O    0.37114   0.99362   0.52122   1.000
    O61     O    0.99335   0.37134   0.11400   1.000
    O62     O    0.52047   0.11415   0.37149   1.000
    O63     O    0.11401   0.52065   0.99400   1.000
    O64     O    0.37153   0.52098   0.11421   1.000
    O65     O    0.99330   0.11452   0.52057   1.000
    O66     O    0.52050   0.37140   0.99351   1.000
    O67     O    0.11409   0.99347   0.37132   1.000
    O68     O    0.37124   0.11399   0.99337   1.000
    O69     O    0.99361   0.52036   0.37165   1.000
    O70     O    0.52024   0.99362   0.11436   1.000
    O71     O    0.11373   0.37148   0.52123   1.000
    O72     O    0.00657   0.62857   0.47890   1.000
    O73     O    0.62874   0.00683   0.88587   1.000
    O74     O    0.88605   0.47931   0.62839   1.000
    O75     O    0.47953   0.88552   0.00630   1.000
    O76     O    0.47930   0.62845   0.88579   1.000
    O77     O    0.88612   0.00603   0.47920   1.000
    O78     O    0.62880   0.47904   0.00622   1.000
    O79     O    0.00644   0.88590   0.62852   1.000
    O80     O    0.88599   0.62872   0.00645   1.000
    O81     O    0.47984   0.00636   0.62831   1.000
    O82     O    0.00659   0.47972   0.88544   1.000
    O83     O    0.62849   0.88600   0.47876   1.000
loop_
    _geom_bond_atom_site_label_1
    _geom_bond_atom_site_label_2
    _geom_bond_distance
    _geom_bond_site_symmetry_2
    _ccdc_geom_bond_type
    O39    Zn2       2.02390      .   S
    O39    C15       1.27890  1_554   S
    O42    Zn5       2.02516      .   S
    O42    C18       1.27906  1_554   S
    O44    Zn7       2.02688      .   S
    O44    C20       1.27890  1_554   S
    O78    Zn5       2.02628      .   S
    O78    C16       1.27904  1_554   S
    O75    Zn7       2.02584      .   S
    O75    C22       1.27906  1_554   S
    O80    Zn2       2.02825      .   S
    O80    C13       1.27885  1_554   S
    Zn5    O52       2.02639      .   S
    Zn5    O64       2.02740      .   S
    Zn7    O49       2.02638      .   S
    Zn7    O70       2.02757      .   S
    Zn2    O58       2.02572      .   S
    Zn2    O61       2.02812      .   S
    C25    O49       1.27905  1_545   S
    C25    O68       1.27890  1_554   S
    C28    O52       1.27874      .   S
    C28    O66       1.27909  1_554   S
    C32    O61       1.27848  1_455   S
    C32    O56       1.27894  1_554   S
    C34    O58       1.27896  1_455   S
    C34    O63       1.27898  1_554   S
    C27    O70       1.27912  1_545   S
    C27    O51       1.27853  1_554   S
    C30    O64       1.27859      .   S
    C30    O54       1.27907  1_554   S
    C31    O67       1.27896  1_545   S
    C31    O55       1.27891  1_455   S
    C33    O62       1.27855      .   S
    C33    O57       1.27915  1_545   S
    C26    O69       1.27898  1_455   S
    C26    O50       1.27788      .   S
    O67    Zn4       2.02804      .   S
    O55    Zn6       2.02634      .   S
    O62    Zn11      2.02731      .   S
    O69    Zn10      2.02589      .   S
    O50    Zn8       2.02673      .   S
    O57    Zn1       2.02512      .   S
    C12    O36       1.27917  1_565   S
    C12    O83       1.27864      .   S
    C23    O47       1.27871      .   S
    C23    O72       1.27897  1_655   S
    C17    O41       1.27899  1_655   S
    C17    O77       1.27911  1_565   S
    O36    Zn11      2.02526      .   S
    O83    Zn1       2.02745      .   S
    O47    Zn10      2.02654      .   S
    O72    Zn8       2.02596      .   S
    O41    Zn4       2.02479      .   S
    O77    Zn6       2.02671      .   S
    Zn6    O65       2.02605      .   S
    Zn6    O43       2.02665      .   S
    Zn11   O59       2.02644      .   S
    Zn11   O81       2.02681      .   S
    Zn4    O53       2.02563      .   S
    Zn4    O79       2.02798      .   S
    Zn1    O60       2.02621      .   S
    Zn1    O38       2.02592      .   S
    Zn10   O48       2.02495      .   S
    Zn10   O74       2.02685      .   S
    Zn8    O71       2.02736      .   S
    Zn8    O45       2.02476      .   S
    O65    C29       1.27735  1_655   S
    O53    C29       1.27755  1_565   S
    O59    C35       1.27876      .   S
    O48    C24       1.27902  1_655   S
    O60    C35       1.27911  1_565   S
    O71    C24       1.27874      .   S
    O38    C14       1.27863      .   S
    O81    C14       1.27914  1_545   S
    O45    C21       1.27903  1_455   S
    O43    C19       1.27903  1_545   S
    O74    C21       1.27845      .   S
    O79    C19       1.27890  1_455   S
    O82    C15       1.27893  1_455   S
    O82    Zn0       2.02575      .   S
    O76    C18       1.27863      .   S
    O76    Zn3       2.02807      .   S
    O73    C20       1.27898  1_545   S
    O73    Zn9       2.02785      .   S
    O46    C22       1.27909  1_545   S
    O46    Zn9       2.02543      .   S
    O40    C16       1.27891      .   S
    O40    Zn3       2.02620      .   S
    O37    C13       1.27896  1_455   S
    O37    Zn0       2.02626      .   S
    Zn9    O68       2.02824      .   S
    Zn9    O51       2.02468      .   S
    Zn0    O56       2.02735      .   S
    Zn0    O63       2.02660      .   S
    Zn3    O66       2.02668      .   S
    Zn3    O54       2.02523      .   S
    Zn11   Zn1       2.56357  1_545   S
    Zn0    Zn2       2.56292  1_456   S
    Zn3    Zn5       2.56322  1_556   S
    Zn4    Zn6       2.56316  1_465   S
    Zn7    Zn9       2.56305  1_564   S
    Zn8    Zn10      2.56421  1_455   S
