# CIF file generated by openbabel 2.4.90, see http://openbabel.sf.net
data_I
_chemical_name_common ''
_cell_length_a 18.942
_cell_length_b 18.96
_cell_length_c 18.965
_cell_angle_alpha 59.983
_cell_angle_beta 60.023
_cell_angle_gamma 60.017
_space_group_name_H-M_alt 'P 1'
_space_group_name_Hall 'P 1'
loop_
    _symmetry_equiv_pos_as_xyz
    x,y,z
loop_
    _atom_site_label
    _atom_site_type_symbol
    _atom_site_fract_x
    _atom_site_fract_y
    _atom_site_fract_z
    _atom_site_occupancy
    Zr0     Zr   0.50015   0.06758   0.49990   1.000
    Zr1     Zr   0.06762   0.50020   0.93240   1.000
    Zr2     Zr   0.49976   0.93252   0.49999   1.000
    Zr3     Zr   0.93237   0.50002   0.06750   1.000
    Zr4     Zr   0.49990   0.49989   0.93245   1.000
    Zr5     Zr   0.06759   0.93236   0.49993   1.000
    Zr6     Zr   0.50023   0.50000   0.06739   1.000
    Zr7     Zr   0.93239   0.06760   0.49986   1.000
    Zr8     Zr   0.49990   0.93234   0.06750   1.000
    Zr9     Zr   0.06760   0.50006   0.50007   1.000
    Zr10    Zr   0.49999   0.06762   0.93239   1.000
    Zr11    Zr   0.93236   0.49986   0.50000   1.000
    Zr12    Zr   0.66489   0.92912   0.47614   1.000
    Zr13    Zr   0.92925   0.66504   0.92963   1.000
    Zr14    Zr   0.47715   0.92949   0.66455   1.000
    Zr15    Zr   0.92968   0.47705   0.92866   1.000
    Zr16    Zr   0.66492   0.47647   0.92937   1.000
    Zr17    Zr   0.92935   0.92917   0.47654   1.000
    Zr18    Zr   0.47694   0.66467   0.92886   1.000
    Zr19    Zr   0.92960   0.92921   0.66476   1.000
    Zr20    Zr   0.66494   0.92990   0.92911   1.000
    Zr21    Zr   0.92922   0.47687   0.66460   1.000
    Zr22    Zr   0.47702   0.92883   0.92939   1.000
    Zr23    Zr   0.92966   0.66476   0.47622   1.000
    Zr24    Zr   0.07053   0.33517   0.52381   1.000
    Zr25    Zr   0.33496   0.07070   0.07020   1.000
    Zr26    Zr   0.07051   0.52306   0.33545   1.000
    Zr27    Zr   0.52290   0.07050   0.07110   1.000
    Zr28    Zr   0.52309   0.33524   0.07039   1.000
    Zr29    Zr   0.07019   0.07120   0.52300   1.000
    Zr30    Zr   0.33520   0.52344   0.07113   1.000
    Zr31    Zr   0.07082   0.07036   0.33506   1.000
    Zr32    Zr   0.07024   0.33514   0.07080   1.000
    Zr33    Zr   0.52281   0.07103   0.33534   1.000
    Zr34    Zr   0.07080   0.52309   0.07090   1.000
    Zr35    Zr   0.33501   0.07050   0.52378   1.000
    Zr36    Zr   0.62867   0.00603   0.47866   1.000
    Zr37    Zr   0.00617   0.62872   0.88651   1.000
    Zr38    Zr   0.47944   0.88651   0.62827   1.000
    Zr39    Zr   0.88657   0.47953   0.00555   1.000
    Zr40    Zr   0.62846   0.47892   0.88640   1.000
    Zr41    Zr   0.00629   0.88599   0.47918   1.000
    Zr42    Zr   0.47956   0.62835   0.00574   1.000
    Zr43    Zr   0.88647   0.00612   0.62836   1.000
    Zr44    Zr   0.62853   0.88677   0.00597   1.000
    Zr45    Zr   0.00616   0.47950   0.62834   1.000
    Zr46    Zr   0.47958   0.00576   0.88636   1.000
    Zr47    Zr   0.88655   0.62838   0.47877   1.000
    Zr48    Zr   0.99358   0.37142   0.52121   1.000
    Zr49    Zr   0.37129   0.99371   0.11326   1.000
    Zr50    Zr   0.11359   0.52067   0.37170   1.000
    Zr51    Zr   0.52045   0.11362   0.99419   1.000
    Zr52    Zr   0.52076   0.37161   0.11331   1.000
    Zr53    Zr   0.11331   0.99433   0.52065   1.000
    Zr54    Zr   0.37145   0.52085   0.99428   1.000
    Zr55    Zr   0.99394   0.11352   0.37141   1.000
    Zr56    Zr   0.11338   0.37161   0.99398   1.000
    Zr57    Zr   0.52015   0.99414   0.37171   1.000
    Zr58    Zr   0.99386   0.52048   0.11398   1.000
    Zr59    Zr   0.37151   0.11352   0.52119   1.000
    Zr60    Zr   0.37114   0.99362   0.52122   1.000
    Zr61    Zr   0.99335   0.37134   0.11400   1.000
    Zr62    Zr   0.52047   0.11415   0.37149   1.000
    Zr63    Zr   0.11401   0.52065   0.99400   1.000
    Zr64    Zr   0.37153   0.52098   0.11421   1.000
    Zr65    Zr   0.99330   0.11452   0.52057   1.000
    Zr66    Zr   0.52050   0.37140   0.99351   1.000
    Zr67    Zr   0.11409   0.99347   0.37132   1.000
    Zr68    Zr   0.37124   0.11399   0.99337   1.000
    Zr69    Zr   0.99361   0.52036   0.37165   1.000
    Zr70    Zr   0.52024   0.99362   0.11436   1.000
    Zr71    Zr   0.11373   0.37148   0.52123   1.000
    Zr72    Zr   0.00657   0.62857   0.47890   1.000
    Zr73    Zr   0.62874   0.00683   0.88587   1.000
    Zr74    Zr   0.88605   0.47931   0.62839   1.000
    Zr75    Zr   0.47953   0.88552   0.00630   1.000
    Zr76    Zr   0.47930   0.62845   0.88579   1.000
    Zr77    Zr   0.88612   0.00603   0.47920   1.000
    Zr78    Zr   0.62880   0.47904   0.00622   1.000
    Zr79    Zr   0.00644   0.88590   0.62852   1.000
    Zr80    Zr   0.88599   0.62872   0.00645   1.000
    Zr81    Zr   0.47984   0.00636   0.62831   1.000
    Zr82    Zr   0.00659   0.47972   0.88544   1.000
    Zr83    Zr   0.62849   0.88600   0.47876   1.000
    O84     O    0.90947   0.48977   0.03653   1.000
    O85     O    0.90813   0.47829   0.96710   1.000
    O86     O    0.48989   0.56417   0.03657   1.000
    O87     O    0.47825   0.64651   0.96730   1.000
    O88     O    0.56421   0.90955   0.03674   1.000
    O89     O    0.64673   0.90834   0.96754   1.000
    O90     O    0.56451   0.48952   0.03681   1.000
    O91     O    0.64686   0.47776   0.96780   1.000
    O92     O    0.48971   0.90893   0.03690   1.000
    O93     O    0.47827   0.90717   0.96785   1.000
    O94     O    0.90918   0.56437   0.03698   1.000
    O95     O    0.90762   0.64688   0.96804   1.000
    O96     O    0.51049   0.43580   0.09035   1.000
    O97     O    0.43588   0.51049   0.09080   1.000
    O98     O    0.43559   0.96302   0.09038   1.000
    O99     O    0.51007   0.96298   0.09093   1.000
    O100    O    0.96311   0.51025   0.09074   1.000
    O101    O    0.96286   0.43568   0.09075   1.000
    O102    O    0.35313   0.03220   0.09173   1.000
    O103    O    0.35310   0.09234   0.03179   1.000
    O104    O    0.52193   0.35342   0.09185   1.000
    O105    O    0.52180   0.35332   0.03195   1.000
    O106    O    0.03180   0.35324   0.09240   1.000
    O107    O    0.09181   0.35337   0.03239   1.000
    O108    O    0.03233   0.52178   0.09244   1.000
    O109    O    0.09241   0.52187   0.03245   1.000
    O110    O    0.52157   0.03206   0.09273   1.000
    O111    O    0.52168   0.09206   0.03265   1.000
    O112    O    0.35336   0.52221   0.09267   1.000
    O113    O    0.35332   0.52215   0.03271   1.000
    O114    O    0.09245   0.03191   0.35319   1.000
    O115    O    0.03238   0.09194   0.35324   1.000
    O116    O    0.52164   0.09259   0.35342   1.000
    O117    O    0.52148   0.03258   0.35353   1.000
    O118    O    0.03206   0.52171   0.35355   1.000
    O119    O    0.09205   0.52186   0.35358   1.000
    O120    O    0.09084   0.96292   0.43563   1.000
    O121    O    0.96317   0.09056   0.43564   1.000
    O122    O    0.51031   0.09086   0.43569   1.000
    O123    O    0.96298   0.51011   0.43583   1.000
    O124    O    0.09059   0.51036   0.43589   1.000
    O125    O    0.50995   0.96333   0.43585   1.000
    O126    O    0.64678   0.96758   0.47740   1.000
    O127    O    0.64669   0.90756   0.47745   1.000
    O128    O    0.90810   0.64657   0.47749   1.000
    O129    O    0.96811   0.64667   0.47756   1.000
    O130    O    0.96782   0.90758   0.47786   1.000
    O131    O    0.90774   0.96760   0.47787   1.000
    O132    O    0.56441   0.03680   0.48928   1.000
    O133    O    0.56413   0.90926   0.48938   1.000
    O134    O    0.90945   0.56412   0.48939   1.000
    O135    O    0.03708   0.56432   0.48949   1.000
    O136    O    0.03694   0.90918   0.48956   1.000
    O137    O    0.90926   0.03681   0.48953   1.000
    O138    O    0.96284   0.09106   0.51021   1.000
    O139    O    0.90943   0.03686   0.56411   1.000
    O140    O    0.43583   0.09055   0.51055   1.000
    O141    O    0.49000   0.03697   0.56411   1.000
    O142    O    0.09045   0.96335   0.51029   1.000
    O143    O    0.03702   0.90913   0.56422   1.000
    O144    O    0.43545   0.96307   0.51060   1.000
    O145    O    0.48960   0.90951   0.56413   1.000
    O146    O    0.96297   0.43564   0.51060   1.000
    O147    O    0.90920   0.48959   0.56420   1.000
    O148    O    0.09066   0.43577   0.51065   1.000
    O149    O    0.03688   0.48978   0.56420   1.000
    O150    O    0.03174   0.09286   0.52179   1.000
    O151    O    0.09175   0.03277   0.52183   1.000
    O152    O    0.35326   0.09201   0.52249   1.000
    O153    O    0.03205   0.35330   0.52251   1.000
    O154    O    0.35307   0.03206   0.52250   1.000
    O155    O    0.09213   0.35333   0.52252   1.000
    O156    O    0.47829   0.90800   0.64641   1.000
    O157    O    0.47850   0.96792   0.64643   1.000
    O158    O    0.96769   0.47819   0.64647   1.000
    O159    O    0.90803   0.96766   0.64656   1.000
    O160    O    0.90763   0.47809   0.64650   1.000
    O161    O    0.96802   0.90756   0.64664   1.000
    O162    O    0.96813   0.47839   0.90705   1.000
    O163    O    0.03710   0.48996   0.90892   1.000
    O164    O    0.47812   0.64656   0.90733   1.000
    O165    O    0.48960   0.56417   0.90912   1.000
    O166    O    0.64684   0.96836   0.90749   1.000
    O167    O    0.56436   0.03723   0.90913   1.000
    O168    O    0.47830   0.96729   0.90787   1.000
    O169    O    0.48978   0.03669   0.90938   1.000
    O170    O    0.64669   0.47770   0.90789   1.000
    O171    O    0.56418   0.48941   0.90943   1.000
    O172    O    0.96771   0.64688   0.90807   1.000
    O173    O    0.03689   0.56446   0.90946   1.000
    O174    O    0.43561   0.09081   0.96288   1.000
    O175    O    0.51022   0.09062   0.96329   1.000
    O176    O    0.09050   0.43590   0.96319   1.000
    O177    O    0.09081   0.51042   0.96320   1.000
    O178    O    0.51020   0.43565   0.96298   1.000
    O179    O    0.43567   0.51037   0.96337   1.000
    O180    O    0.49995   0.00005   0.49995   1.000
    O181    O    0.99999   0.50011   0.99995   1.000
    O182    O    0.50006   0.49994   0.99992   1.000
    O183    O    0.99999   0.99998   0.49990   1.000
    O184    O    0.49994   0.99998   0.99995   1.000
    O185    O    0.99998   0.49996   0.50004   1.000
    N186    N    0.84264   0.47264   0.84223   1.000
    O187    O    0.87495   0.47363   0.77654   1.000
    O188    O    0.77691   0.47347   0.87475   1.000
    O189    O    0.87513   0.47369   0.87449   1.000
    N190    N    0.47296   0.84237   0.84225   1.000
    O191    O    0.47385   0.77665   0.87457   1.000
    O192    O    0.47389   0.87464   0.87476   1.000
    O193    O    0.47394   0.87488   0.77652   1.000
    N194    N    0.15745   0.52734   0.15781   1.000
    O195    O    0.12511   0.52634   0.12538   1.000
    O196    O    0.12500   0.52634   0.22351   1.000
    O197    O    0.22319   0.52649   0.12546   1.000
    N198    N    0.15719   0.15754   0.52792   1.000
    O199    O    0.12471   0.12530   0.52674   1.000
    O200    O    0.12485   0.22323   0.52700   1.000
    O201    O    0.22295   0.12505   0.52699   1.000
    N202    N    0.84273   0.84285   0.84265   1.000
    O203    O    0.87516   0.87509   0.77686   1.000
    O204    O    0.87503   0.77709   0.87512   1.000
    O205    O    0.77698   0.87535   0.87493   1.000
    N206    N    0.52702   0.15756   0.15762   1.000
    O207    O    0.52606   0.12507   0.12535   1.000
    O208    O    0.52603   0.12527   0.22336   1.000
    O209    O    0.52615   0.22327   0.12508   1.000
    N210    N    0.84271   0.84243   0.47201   1.000
    O211    O    0.77694   0.87479   0.47294   1.000
    O212    O    0.87505   0.87481   0.47309   1.000
    O213    O    0.87516   0.77672   0.47296   1.000
    N214    N    0.15721   0.15726   0.15721   1.000
    O215    O    0.12475   0.22304   0.12495   1.000
    O216    O    0.22294   0.12494   0.12470   1.000
    O217    O    0.12496   0.12481   0.22298   1.000
loop_
    _geom_bond_atom_site_label_1
    _geom_bond_atom_site_label_2
    _geom_bond_distance
    _geom_bond_site_symmetry_2
    _ccdc_geom_bond_type
    Zr39   O84       1.01195      .   S
    Zr3    O84       1.01195      .   S
    Zr39   O85       0.63945  1_554   S
    Zr15   O85       0.63945      .   S
    Zr42   O86       1.01258      .   S
    Zr6    O86       1.01258      .   S
    Zr42   O87       0.63953  1_554   S
    Zr18   O87       0.63953      .   S
    Zr44   O88       1.01344      .   S
    Zr8    O88       1.01344      .   S
    Zr44   O89       0.63945  1_554   S
    Zr20   O89       0.63945      .   S
    Zr78   O90       1.01314      .   S
    Zr6    O90       1.01314      .   S
    Zr78   O91       0.63952  1_554   S
    Zr16   O91       0.63952      .   S
    Zr75   O92       1.01292      .   S
    Zr8    O92       1.01292      .   S
    Zr75   O93       0.63953  1_554   S
    Zr22   O93       0.63953      .   S
    Zr80   O94       1.01412      .   S
    Zr3    O94       1.01412      .   S
    Zr80   O95       0.63943  1_554   S
    Zr13   O95       0.63943      .   S
    Zr6    O96       1.01319      .   S
    Zr52   O96       1.01319      .   S
    Zr6    O97       1.01370      .   S
    Zr64   O97       1.01370      .   S
    Zr8    O98       1.01319      .   S
    Zr49   O98       1.01319      .   S
    Zr8    O99       1.01378      .   S
    Zr70   O99       1.01378      .   S
    Zr3    O100      1.01286      .   S
    Zr58   O100      1.01286      .   S
    Zr3    O101      1.01406      .   S
    Zr61   O101      1.01406      .   S
    Zr25   O102      0.63953      .   S
    Zr49   O102      0.63953  1_565   S
    Zr25   O103      0.63945      .   S
    Zr68   O103      0.63945  1_556   S
    Zr28   O104      0.63937      .   S
    Zr52   O104      0.63937      .   S
    Zr28   O105      0.63955      .   S
    Zr66   O105      0.63955  1_556   S
    Zr32   O106      0.63924      .   S
    Zr61   O106      0.63924  1_655   S
    Zr32   O107      0.63947      .   S
    Zr56   O107      0.63947  1_556   S
    Zr34   O108      0.63948      .   S
    Zr58   O108      0.63948  1_655   S
    Zr34   O109      0.63949      .   S
    Zr63   O109      0.63949  1_556   S
    Zr27   O110      0.63956      .   S
    Zr70   O110      0.63956  1_565   S
    Zr27   O111      0.63927      .   S
    Zr51   O111      0.63927  1_556   S
    Zr30   O112      0.63930      .   S
    Zr64   O112      0.63930      .   S
    Zr30   O113      0.63954      .   S
    Zr54   O113      0.63954  1_556   S
    Zr31   O114      0.63948      .   S
    Zr67   O114      0.63948  1_565   S
    Zr31   O115      0.63946      .   S
    Zr55   O115      0.63946  1_655   S
    Zr33   O116      0.63927      .   S
    Zr62   O116      0.63927      .   S
    Zr33   O117      0.63957      .   S
    Zr57   O117      0.63957  1_565   S
    Zr26   O118      0.63949      .   S
    Zr69   O118      0.63949  1_655   S
    Zr26   O119      0.63894      .   S
    Zr50   O119      0.63894      .   S
    Zr67   O120      1.01402      .   S
    Zr5    O120      1.01402      .   S
    Zr55   O121      1.01317      .   S
    Zr7    O121      1.01317      .   S
    Zr62   O122      1.01365      .   S
    Zr0    O122      1.01365      .   S
    Zr69   O123      1.01295      .   S
    Zr11   O123      1.01295      .   S
    Zr50   O124      1.01336      .   S
    Zr9    O124      1.01336      .   S
    Zr57   O125      1.01256      .   S
    Zr2    O125      1.01256      .   S
    Zr12   O126      0.63958      .   S
    Zr36   O126      0.63958  1_545   S
    Zr12   O127      0.63932      .   S
    Zr83   O127      0.63932      .   S
    Zr23   O128      0.63936      .   S
    Zr47   O128      0.63936      .   S
    Zr23   O129      0.63948      .   S
    Zr72   O129      0.63948  1_455   S
    Zr17   O130      0.63949      .   S
    Zr41   O130      0.63949  1_455   S
    Zr17   O131      0.63956      .   S
    Zr77   O131      0.63956  1_545   S
    Zr36   O132      1.01263      .   S
    Zr0    O132      1.01263      .   S
    Zr83   O133      1.01373      .   S
    Zr2    O133      1.01373      .   S
    Zr47   O134      1.01327      .   S
    Zr11   O134      1.01327      .   S
    Zr72   O135      1.01298      .   S
    Zr9    O135      1.01298      .   S
    Zr41   O136      1.01239      .   S
    Zr5    O136      1.01239      .   S
    Zr77   O137      1.01336      .   S
    Zr7    O137      1.01336      .   S
    Zr7    O138      1.01303      .   S
    Zr65   O138      1.01303      .   S
    Zr7    O139      1.01333      .   S
    Zr43   O139      1.01333      .   S
    Zr0    O140      1.01322      .   S
    Zr59   O140      1.01322      .   S
    Zr0    O141      1.01340      .   S
    Zr81   O141      1.01340      .   S
    Zr5    O142      1.01282      .   S
    Zr53   O142      1.01282      .   S
    Zr5    O143      1.01399      .   S
    Zr79   O143      1.01399      .   S
    Zr2    O144      1.01311      .   S
    Zr60   O144      1.01311      .   S
    Zr2    O145      1.01296      .   S
    Zr38   O145      1.01296      .   S
    Zr11   O146      1.01247      .   S
    Zr48   O146      1.01247      .   S
    Zr11   O147      1.01342      .   S
    Zr74   O147      1.01342      .   S
    Zr9    O148      1.01368      .   S
    Zr71   O148      1.01368      .   S
    Zr9    O149      1.01238      .   S
    Zr45   O149      1.01238      .   S
    Zr65   O150      0.63867  1_655   S
    Zr29   O150      0.63867      .   S
    Zr53   O151      0.63877  1_565   S
    Zr29   O151      0.63877      .   S
    Zr59   O152      0.63938      .   S
    Zr35   O152      0.63938      .   S
    Zr48   O153      0.63951  1_655   S
    Zr24   O153      0.63951      .   S
    Zr60   O154      0.63956  1_565   S
    Zr35   O154      0.63956      .   S
    Zr71   O155      0.63937      .   S
    Zr24   O155      0.63937      .   S
    Zr38   O156      0.63931      .   S
    Zr14   O156      0.63931      .   S
    Zr81   O157      0.63957  1_545   S
    Zr14   O157      0.63957      .   S
    Zr45   O158      0.63952  1_455   S
    Zr21   O158      0.63952      .   S
    Zr43   O159      0.63952  1_545   S
    Zr19   O159      0.63952      .   S
    Zr74   O160      0.63922      .   S
    Zr21   O160      0.63922      .   S
    Zr79   O161      0.63945  1_455   S
    Zr19   O161      0.63945      .   S
    Zr82   O162      0.63947  1_455   S
    Zr15   O162      0.63947      .   S
    Zr82   O163      1.01287      .   S
    Zr1    O163      1.01287      .   S
    Zr76   O164      0.63932      .   S
    Zr18   O164      0.63932      .   S
    Zr76   O165      1.01404      .   S
    Zr4    O165      1.01404      .   S
    Zr73   O166      0.63949  1_545   S
    Zr20   O166      0.63949      .   S
    Zr73   O167      1.01392      .   S
    Zr10   O167      1.01392      .   S
    Zr46   O168      0.63955  1_545   S
    Zr22   O168      0.63955      .   S
    Zr46   O169      1.01271      .   S
    Zr10   O169      1.01271      .   S
    Zr40   O170      0.63945      .   S
    Zr16   O170      0.63945      .   S
    Zr40   O171      1.01310      .   S
    Zr4    O171      1.01310      .   S
    Zr37   O172      0.63948  1_455   S
    Zr13   O172      0.63948      .   S
    Zr37   O173      1.01313      .   S
    Zr1    O173      1.01313      .   S
    Zr10   O174      1.01412      .   S
    Zr68   O174      1.01412      .   S
    Zr10   O175      1.01234      .   S
    Zr51   O175      1.01234      .   S
    Zr1    O176      1.01368      .   S
    Zr56   O176      1.01368      .   S
    Zr1    O177      1.01330      .   S
    Zr63   O177      1.01330      .   S
    Zr4    O178      1.01334      .   S
    Zr66   O178      1.01334      .   S
    Zr4    O179      1.01262      .   S
    Zr54   O179      1.01262      .   S
    Zr0    O180      1.28179      .   S
    Zr2    O180      1.28179  1_565   S
    Zr1    O181      1.28146  1_455   S
    Zr3    O181      1.28146  1_554   S
    Zr4    O182      1.28161      .   S
    Zr6    O182      1.28161  1_554   S
    Zr5    O183      1.28158  1_455   S
    Zr7    O183      1.28158  1_545   S
    Zr8    O184      1.28153  1_554   S
    Zr10   O184      1.28153  1_545   S
    Zr9    O185      1.28211  1_455   S
    Zr11   O185      1.28211      .   S
    N186   O187      1.07397      .   S
    Zr21   O187      1.82178      .   S
    N186   O188      1.07408      .   S
    Zr16   O188      1.82183      .   S
    N186   O189      1.07415      .   S
    Zr15   O189      1.82190      .   S
    N190   O191      1.07420      .   S
    Zr18   O191      1.82202      .   S
    N190   O192      1.07417      .   S
    Zr22   O192      1.82198      .   S
    N190   O193      1.07408      .   S
    Zr14   O193      1.82188      .   S
    N194   O195      1.07408      .   S
    Zr34   O195      1.82176      .   S
    N194   O196      1.07397      .   S
    Zr26   O196      1.82171      .   S
    N194   O197      1.07408      .   S
    Zr30   O197      1.82181      .   S
    N198   O199      1.07501      .   S
    Zr29   O199      1.82443      .   S
    N198   O200      1.07393      .   S
    Zr24   O200      1.82158      .   S
    N198   O201      1.07400      .   S
    Zr35   O201      1.82170      .   S
    N202   O203      1.07425      .   S
    Zr19   O203      1.82216      .   S
    N202   O204      1.07419      .   S
    Zr13   O204      1.82206      .   S
    N202   O205      1.07419      .   S
    Zr20   O205      1.82208      .   S
    N206   O207      1.07421      .   S
    Zr27   O207      1.82230      .   S
    N206   O208      1.07423      .   S
    Zr33   O208      1.82200      .   S
    N206   O209      1.07420      .   S
    Zr28   O209      1.82204      .   S
    N210   O211      1.07397      .   S
    Zr12   O211      1.82165      .   S
    N210   O212      1.07415      .   S
    Zr17   O212      1.82184      .   S
    N210   O213      1.07394      .   S
    Zr23   O213      1.82161      .   S
    N214   O215      1.07424      .   S
    Zr32   O215      1.82216      .   S
    N214   O216      1.07425      .   S
    Zr25   O216      1.82190      .   S
    N214   O217      1.07425      .   S
    Zr31   O217      1.82208      .   S
