# CIF file generated by openbabel 2.4.90, see http://openbabel.sf.net
data_I
_chemical_name_common ''
_cell_length_a 20.781
_cell_length_b 12.145
_cell_length_c 12.144
_cell_angle_alpha 96.958
_cell_angle_beta 105.259
_cell_angle_gamma 74.891
_space_group_name_H-M_alt 'P 1'
_space_group_name_Hall 'P 1'
loop_
    _symmetry_equiv_pos_as_xyz
    x,y,z
loop_
    _atom_site_label
    _atom_site_type_symbol
    _atom_site_fract_x
    _atom_site_fract_y
    _atom_site_fract_z
    _atom_site_occupancy
    Zr0     Zr   0.12515   0.11696   0.11798   1.000
    Zr1     Zr   0.62515   0.11694   0.11806   1.000
    Zr2     Zr   0.37485   0.88310   0.88205   1.000
    Zr3     Zr   0.87486   0.88308   0.88217   1.000
    Zr4     Zr   0.00000   0.00001   0.90000   1.000
    Zr5     Zr   0.25000   0.00000   0.99999   1.000
    Zr6     Zr   0.74999   0.00000   0.10000   1.000
    N7      N    0.49765   0.86181   0.44670   1.000
    O8      O    0.44545   0.87151   0.63095   1.000
    O9      O    0.45290   0.87176   0.20293   1.000
    O10     O    0.39842   0.91200   0.25115   1.000
    N11     N    0.25230   0.44685   0.86161   1.000
    O12     O    0.30437   0.63150   0.87093   1.000
    O13     O    0.24778   0.68628   0.90919   1.000
    O14     O    0.26575   0.23261   0.90081   1.000
    O15     O    0.29696   0.20338   0.87132   1.000
    N16     N    0.00235   0.13823   0.55330   1.000
    O17     O    0.01581   0.09905   0.74259   1.000
    O18     O    0.04710   0.12828   0.79709   1.000
    O19     O    0.05455   0.12854   0.36907   1.000
    O20     O    0.10158   0.08804   0.74885   1.000
    N21     N    0.75229   0.44683   0.86164   1.000
    O22     O    0.79696   0.20337   0.87138   1.000
    O23     O    0.85155   0.25132   0.88682   1.000
    O24     O    0.80436   0.63149   0.87100   1.000
    N25     N    0.24770   0.55320   0.13834   1.000
    O26     O    0.20304   0.79667   0.12866   1.000
    O27     O    0.23425   0.76743   0.09916   1.000
    O28     O    0.25223   0.31376   0.09077   1.000
    O29     O    0.19564   0.36855   0.12906   1.000
    N30     N    0.74769   0.55318   0.13842   1.000
    O31     O    0.73424   0.76742   0.12421   1.000
    O32     O    0.70304   0.79665   0.12873   1.000
    O33     O    0.75222   0.31374   0.11583   1.000
    O34     O    0.69563   0.36853   0.12913   1.000
    N35     N    0.50234   0.13822   0.55307   1.000
    O36     O    0.55455   0.12852   0.36899   1.000
    O37     O    0.54710   0.12827   0.79700   1.000
    N38     N    0.99765   0.86181   0.44676   1.000
    O39     O    0.94545   0.87150   0.63103   1.000
    O40     O    0.00217   0.90938   0.66120   1.000
    O41     O    0.89842   0.91199   0.27619   1.000
    O42     O    0.95291   0.87175   0.20300   1.000
loop_
    _geom_bond_atom_site_label_1
    _geom_bond_atom_site_label_2
    _geom_bond_distance
    _geom_bond_site_symmetry_2
    _ccdc_geom_bond_type
    N7     O8        2.70991      .   S
    Zr2    O8        3.68977      .   S
    N7     O9        2.86747      .   S
    Zr2    O9        3.81066  1_556   S
    N7     O10       2.71684      .   S
    Zr5    O10       3.75210  1_546   S
    N11    O12       2.71138      .   S
    Zr2    O12       3.69187      .   S
    N11    O13       2.87708      .   S
    Zr5    O13       3.84474  1_545   S
    N11    O14       2.63172      .   S
    Zr5    O14       3.32452      .   S
    N11    O15       2.86617      .   S
    Zr2    O15       3.80756  1_565   S
    N16    O17       2.33364      .   S
    Zr4    O17       2.51046      .   S
    N16    O18       2.86756      .   S
    Zr0    O18       3.81081  1_554   S
    N16    O19       2.70986      .   S
    Zr0    O19       3.68968      .   S
    N16    O20       2.71678      .   S
    Zr5    O20       3.75199      .   S
    N21    O22       2.86619      .   S
    Zr3    O22       3.80763  1_565   S
    N21    O23       2.69761      .   S
    Zr4    O23       3.71597  1_455   S
    N21    O24       2.71140      .   S
    Zr3    O24       3.69190      .   S
    N25    O26       2.86617      .   S
    Zr0    O26       3.80760  1_545   S
    N25    O27       2.63152      .   S
    Zr5    O27       3.32402  1_546   S
    N25    O28       2.87721      .   S
    Zr5    O28       3.84514  1_556   S
    N25    O29       2.71143      .   S
    Zr0    O29       3.69193      .   S
    N30    O31       2.56555      .   S
    Zr6    O31       2.98434  1_545   S
    N30    O32       2.86616      .   S
    Zr1    O32       3.80754  1_545   S
    N30    O33       2.86678      .   S
    Zr6    O33       3.80364      .   S
    N30    O34       2.71138      .   S
    Zr1    O34       3.69185      .   S
    N35    O36       2.70810      .   S
    Zr1    O36       3.68789      .   S
    N35    O37       2.86930      .   S
    Zr1    O37       3.81270  1_554   S
    N38    O39       2.71021      .   S
    Zr3    O39       3.69014      .   S
    N38    O40       2.58063  1_655   S
    Zr4    O40       2.98210  1_545   S
    N38    O41       2.51330      .   S
    Zr6    O41       3.25519  1_545   S
    N38    O42       2.86723      .   S
    Zr3    O42       3.81010  1_556   S
