# CIF file generated by openbabel 2.4.90, see http://openbabel.sf.net
data_I
_chemical_name_common ''
_cell_length_a 16.167
_cell_length_b 16.49
_cell_length_c 16.492
_cell_angle_alpha 98.472
_cell_angle_beta 93.827
_cell_angle_gamma 93.835
_space_group_name_H-M_alt 'P 1'
_space_group_name_Hall 'P 1'
loop_
    _symmetry_equiv_pos_as_xyz
    x,y,z
loop_
    _atom_site_label
    _atom_site_type_symbol
    _atom_site_fract_x
    _atom_site_fract_y
    _atom_site_fract_z
    _atom_site_occupancy
    H0      H    0.45359   0.26209   0.72633   1.000
    H1      H    0.27994   0.25836   0.51455   1.000
    H2      H    0.22633   0.10866   0.70157   1.000
    H3      H    0.43365   0.06214   0.90633   1.000
    H4      H    0.33158   0.02638   0.92463   1.000
    H5      H    0.55976   0.39002   0.52700   1.000
    H6      H    0.62371   0.38058   0.61607   1.000
    H7      H    0.08295   0.13149   0.40397   1.000
    H8      H    0.04373   0.22918   0.42502   1.000
    H9      H    0.36073   0.90867   0.34177   1.000
    H10     H    0.50557   0.84568   0.54932   1.000
    H11     H    0.61985   0.00000   0.39282   1.000
    H12     H    0.58927   0.15033   0.21124   1.000
    H13     H    0.48910   0.10383   0.17520   1.000
    H14     H    0.25069   0.70377   0.53027   1.000
    H15     H    0.31778   0.70932   0.61957   1.000
    H16     H    0.78419   0.93221   0.62224   1.000
    H17     H    0.71964   0.93391   0.70515   1.000
    H18     H    0.27770   0.07532   0.81109   1.000
    H19     H    0.49504   0.36725   0.68785   1.000
    H20     H    0.13870   0.26079   0.53276   1.000
    H21     H    0.59540   0.06750   0.31677   1.000
    H22     H    0.41777   0.78286   0.56681   1.000
    H23     H    0.61724   0.84224   0.59527   1.000
    H24     H    0.04566   0.27296   0.73693   1.000
    H25     H    0.21930   0.48461   0.73941   1.000
    H26     H    0.27307   0.29845   0.89010   1.000
    H27     H    0.06608   0.09342   0.93712   1.000
    H28     H    0.16823   0.07482   0.97245   1.000
    H29     H    0.93888   0.47199   0.60885   1.000
    H30     H    0.87505   0.38245   0.61706   1.000
    H31     H    0.41650   0.59518   0.86940   1.000
    H32     H    0.45549   0.57607   0.77150   1.000
    H33     H    0.13967   0.65766   0.09069   1.000
    H34     H    0.99439   0.45030   0.15371   1.000
    H35     H    0.88045   0.60699   0.00409   1.000
    H36     H    0.91068   0.78741   0.84834   1.000
    H37     H    0.01071   0.82409   0.89486   1.000
    H38     H    0.24917   0.46906   0.29568   1.000
    H39     H    0.18207   0.37976   0.28999   1.000
    H40     H    0.71591   0.37774   0.06576   1.000
    H41     H    0.78011   0.29444   0.06306   1.000
    H42     H    0.22206   0.18857   0.92376   1.000
    H43     H    0.00319   0.31113   0.63216   1.000
    H44     H    0.36119   0.46784   0.73825   1.000
    H45     H    0.90465   0.68283   0.93207   1.000
    H46     H    0.08219   0.43255   0.21644   1.000
    H47     H    0.88267   0.40344   0.15601   1.000
    H48     H    0.54570   0.73702   0.27305   1.000
    H49     H    0.71929   0.73967   0.48473   1.000
    H50     H    0.77303   0.89032   0.29852   1.000
    H51     H    0.56599   0.93715   0.09347   1.000
    H52     H    0.66814   0.97234   0.07467   1.000
    H53     H    0.43891   0.60893   0.47213   1.000
    H54     H    0.37503   0.61726   0.38268   1.000
    H55     H    0.91644   0.86939   0.59533   1.000
    H56     H    0.95537   0.77148   0.57602   1.000
    H57     H    0.63951   0.09063   0.65781   1.000
    H58     H    0.49431   0.15381   0.45055   1.000
    H59     H    0.38034   0.00397   0.60704   1.000
    H60     H    0.41055   0.84809   0.78738   1.000
    H61     H    0.51048   0.89470   0.82419   1.000
    H62     H    0.74915   0.29573   0.46930   1.000
    H63     H    0.68216   0.28988   0.37992   1.000
    H64     H    0.21584   0.06588   0.37796   1.000
    H65     H    0.28005   0.06298   0.29466   1.000
    H66     H    0.72199   0.92386   0.18854   1.000
    H67     H    0.50314   0.63259   0.31134   1.000
    H68     H    0.86107   0.73845   0.46781   1.000
    H69     H    0.40452   0.93198   0.68297   1.000
    H70     H    0.58224   0.21632   0.43264   1.000
    H71     H    0.38263   0.15606   0.40361   1.000
    H72     H    0.95356   0.72625   0.26209   1.000
    H73     H    0.77982   0.51446   0.25831   1.000
    H74     H    0.72635   0.70155   0.10866   1.000
    H75     H    0.93363   0.90640   0.06229   1.000
    H76     H    0.83156   0.92469   0.02652   1.000
    H77     H    0.05969   0.52694   0.39005   1.000
    H78     H    0.12366   0.61601   0.38055   1.000
    H79     H    0.58295   0.40369   0.13156   1.000
    H80     H    0.54296   0.42539   0.22877   1.000
    H81     H    0.86072   0.34165   0.90859   1.000
    H82     H    0.00558   0.54927   0.84564   1.000
    H83     H    0.11983   0.39269   0.00000   1.000
    H84     H    0.08918   0.21096   0.15011   1.000
    H85     H    0.98895   0.17499   0.10365   1.000
    H86     H    0.75070   0.53021   0.70378   1.000
    H87     H    0.81783   0.61948   0.70925   1.000
    C88     C    0.89427   0.69092   0.24295   1.000
    C89     C    0.87205   0.61658   0.26959   1.000
    C90     C    0.79519   0.57433   0.24006   1.000
    C91     C    0.74292   0.60571   0.18283   1.000
    H92     H    0.28419   0.62218   0.93214   1.000
    H93     H    0.21968   0.70512   0.93389   1.000
    H94     H    0.77767   0.81112   0.07540   1.000
    H95     H    0.00000   0.68780   0.36725   1.000
    H96     H    0.63820   0.53277   0.26044   1.000
    H97     H    0.09530   0.31667   0.06753   1.000
    H98     H    0.91780   0.56674   0.78282   1.000
    H99     H    0.11721   0.59530   0.84222   1.000
    C100    C    0.34300   0.18553   0.72277   1.000
    C101    C    0.39432   0.24293   0.69096   1.000
    C102    C    0.37213   0.26958   0.61664   1.000
    C103    C    0.29529   0.24008   0.57439   1.000
    C104    C    0.24298   0.18283   0.60574   1.000
    C105    C    0.26747   0.15432   0.67929   1.000
    C106    C    0.37800   0.16205   0.80255   1.000
    C107    C    0.36963   0.07983   0.91104   1.000
    C108    C    0.37153   0.14815   0.98498   1.000
    C109    C    0.43236   0.32093   0.57652   1.000
    C110    C    0.56595   0.40490   0.59432   1.000
    C111    C    0.57590   0.49858   0.61612   1.000
    C112    C    0.16480   0.14655   0.55582   1.000
    C113    C    0.05752   0.17401   0.45199   1.000
    C114    C    0.97449   0.13559   0.47143   1.000
    C115    C    0.48919   0.95604   0.35740   1.000
    C116    C    0.41983   0.90924   0.37768   1.000
    C117    C    0.42510   0.86801   0.44624   1.000
    C118    C    0.50120   0.87289   0.49327   1.000
    C119    C    0.57103   0.91770   0.47305   1.000
    O120    O    0.64542   0.53161   0.60082   1.000
    O121    O    0.51728   0.53833   0.64595   1.000
    O122    O    0.14380   0.07084   0.54444   1.000
    O123    O    0.94755   0.14556   0.54163   1.000
    O124    O    0.93102   0.09401   0.40795   1.000
    C125    C    0.56459   0.95897   0.40491   1.000
    C126    C    0.47564   0.01009   0.29204   1.000
    C127    C    0.52917   0.12827   0.23100   1.000
    C128    C    0.49143   0.20383   0.27448   1.000
    C129    C    0.34828   0.82804   0.47502   1.000
    C130    C    0.29196   0.74661   0.57536   1.000
    C131    C    0.23775   0.80622   0.62225   1.000
    C132    C    0.65028   0.93140   0.52683   1.000
    C133    C    0.73397   0.89767   0.64690   1.000
    C134    C    0.76376   0.81448   0.66481   1.000
    C135    C    0.15637   0.27687   0.81336   1.000
    C136    C    0.10493   0.30841   0.75584   1.000
    C137    C    0.12709   0.38251   0.72870   1.000
    C138    C    0.20399   0.42487   0.75796   1.000
    C139    C    0.25629   0.39385   0.81544   1.000
    C140    C    0.23188   0.32046   0.84430   1.000
    C141    C    0.12155   0.19721   0.83722   1.000
    C142    C    0.13002   0.08861   0.91922   1.000
    C143    C    0.12786   0.01485   0.85063   1.000
    C144    C    0.06691   0.42236   0.67699   1.000
    C145    C    0.93302   0.40470   0.59346   1.000
    C146    C    0.92395   0.38362   0.49966   1.000
    C147    C    0.33428   0.44388   0.85203   1.000
    C148    C    0.44196   0.54793   0.82603   1.000
    C149    C    0.52518   0.52837   0.86397   1.000
    C150    C    0.01118   0.64225   0.04326   1.000
    C151    C    0.08049   0.62188   0.09012   1.000
    C152    C    0.07506   0.55333   0.13140   1.000
    C153    C    0.99888   0.50633   0.12645   1.000
    C154    C    0.92914   0.52666   0.08159   1.000
    C155    C    0.93571   0.59484   0.04041   1.000
    C156    C    0.02473   0.70738   0.98888   1.000
    C157    C    0.97087   0.76805   0.87064   1.000
    C158    C    0.00891   0.72437   0.79536   1.000
    C159    C    0.15180   0.52444   0.17144   1.000
    C160    C    0.20798   0.42400   0.25277   1.000
    C161    C    0.26226   0.37711   0.19318   1.000
    C162    C    0.84985   0.47296   0.06762   1.000
    C163    C    0.76600   0.35247   0.09987   1.000
    C164    C    0.73612   0.33375   0.18268   1.000
    C165    C    0.65638   0.81349   0.27695   1.000
    C166    C    0.60495   0.75597   0.30852   1.000
    C167    C    0.62710   0.72889   0.38264   1.000
    C168    C    0.70398   0.75820   0.42498   1.000
    C169    C    0.75627   0.81571   0.39395   1.000
    C170    C    0.73187   0.84452   0.32055   1.000
    C171    C    0.62154   0.83727   0.19727   1.000
    C172    C    0.62989   0.91917   0.08859   1.000
    C173    C    0.62759   0.85047   0.01492   1.000
    C174    C    0.56694   0.67715   0.42251   1.000
    C175    C    0.43301   0.59363   0.40484   1.000
    C176    C    0.42397   0.49983   0.38365   1.000
    C177    C    0.83426   0.85230   0.44399   1.000
    C178    C    0.94188   0.82609   0.54800   1.000
    C179    C    0.02515   0.86404   0.52849   1.000
    C180    C    0.51106   0.04317   0.64235   1.000
    C181    C    0.58034   0.09006   0.62203   1.000
    C182    C    0.57494   0.13140   0.55352   1.000
    C183    C    0.49880   0.12647   0.50653   1.000
    C184    C    0.42906   0.08156   0.52680   1.000
    C185    C    0.43560   0.04031   0.59494   1.000
    C186    C    0.52458   0.98878   0.70745   1.000
    C187    C    0.47075   0.87050   0.76810   1.000
    C188    C    0.50888   0.79530   0.72440   1.000
    C189    C    0.65170   0.17146   0.52471   1.000
    C190    C    0.70803   0.25273   0.42424   1.000
    C191    C    0.76242   0.19313   0.37753   1.000
    C192    C    0.34979   0.06764   0.47310   1.000
    C193    C    0.26597   0.09989   0.35264   1.000
    C194    C    0.23618   0.18269   0.33380   1.000
    C195    C    0.84296   0.72276   0.18558   1.000
    C196    C    0.76745   0.67928   0.15435   1.000
    C197    C    0.87797   0.80256   0.16212   1.000
    C198    C    0.86960   0.91110   0.07995   1.000
    C199    C    0.87150   0.98502   0.14829   1.000
    C200    C    0.93229   0.57646   0.32092   1.000
    C201    C    0.06589   0.59428   0.40490   1.000
    C202    C    0.07587   0.61610   0.49857   1.000
    C203    C    0.66479   0.55580   0.14635   1.000
    C204    C    0.55723   0.45199   0.17351   1.000
    C205    C    0.47446   0.47106   0.13429   1.000
    C206    C    0.00000   0.35731   0.95597   1.000
    C207    C    0.91981   0.37759   0.90917   1.000
    C208    C    0.92508   0.44616   0.86796   1.000
    C209    C    0.00121   0.49320   0.87284   1.000
    C210    C    0.07103   0.47298   0.91763   1.000
    C211    C    0.06459   0.40483   0.95889   1.000
    C212    C    0.97557   0.29189   0.00998   1.000
    C213    C    0.02906   0.23076   0.12815   1.000
    C214    C    0.99137   0.27410   0.20381   1.000
    C215    C    0.84829   0.47495   0.82799   1.000
    C216    C    0.79200   0.57530   0.74658   1.000
    C217    C    0.73785   0.62224   0.80621   1.000
    C218    C    0.15027   0.52677   0.93129   1.000
    C219    C    0.23399   0.64687   0.89762   1.000
    C220    C    0.26376   0.66482   0.81444   1.000
    N221    N    0.33614   0.10138   0.83408   1.000
    N222    N    0.49533   0.36427   0.62565   1.000
    N223    N    0.11981   0.19981   0.52009   1.000
    N224    N    0.54092   0.06414   0.28128   1.000
    N225    N    0.35990   0.78407   0.53731   1.000
    N226    N    0.66073   0.88827   0.58886   1.000
    N227    N    0.16362   0.16562   0.89773   1.000
    N228    N    0.00337   0.37329   0.63448   1.000
    N229    N    0.37974   0.47993   0.79933   1.000
    N230    N    0.95923   0.71810   0.93506   1.000
    N231    N    0.14006   0.46207   0.21530   1.000
    N232    N    0.83944   0.41028   0.10990   1.000
    N233    N    0.66356   0.89777   0.16560   1.000
    N234    N    0.50335   0.63472   0.37347   1.000
    N235    N    0.87967   0.79952   0.47998   1.000
    N236    N    0.45910   0.93496   0.71821   1.000
    N237    N    0.64007   0.21524   0.46226   1.000
    N238    N    0.33940   0.10994   0.41044   1.000
    N239    N    0.83610   0.83411   0.10148   1.000
    N240    N    0.00000   0.62560   0.36427   1.000
    N241    N    0.61947   0.52015   0.19942   1.000
    N242    N    0.04080   0.28119   0.06413   1.000
    N243    N    0.85993   0.53722   0.78401   1.000
    N244    N    0.16072   0.58884   0.88821   1.000
    O245    O    0.44409   0.19743   0.83682   1.000
    O246    O    0.31976   0.20461   0.98569   1.000
    O247    O    0.42362   0.14622   0.04535   1.000
    O248    O    0.42653   0.31973   0.50021   1.000
    O249    O    0.40731   0.00848   0.25314   1.000
    O250    O    0.49279   0.21833   0.35267   1.000
    O251    O    0.45875   0.25263   0.23067   1.000
    O252    O    0.27638   0.83665   0.44462   1.000
    O253    O    0.17822   0.77437   0.65661   1.000
    O254    O    0.25093   0.88414   0.62593   1.000
    O255    O    0.70471   0.00000   0.51393   1.000
    O256    O    0.71603   0.75071   0.63224   1.000
    O257    O    0.82984   0.81604   0.70826   1.000
    O258    O    0.05533   0.16293   0.80217   1.000
    O259    O    0.18022   0.01394   0.79472   1.000
    O260    O    0.07512   0.95479   0.85175   1.000
    O261    O    0.07331   0.49852   0.67710   1.000
    O262    O    0.85481   0.39926   0.46609   1.000
    O263    O    0.98287   0.35389   0.46034   1.000
    O264    O    0.35473   0.45499   0.92782   1.000
    O265    O    0.55210   0.45818   0.85415   1.000
    O266    O    0.56884   0.59193   0.90520   1.000
    O267    O    0.09310   0.74605   0.00000   1.000
    O268    O    0.00761   0.64616   0.78110   1.000
    O269    O    0.04172   0.76799   0.74649   1.000
    O270    O    0.22376   0.55481   0.16299   1.000
    O271    O    0.32215   0.34332   0.22512   1.000
    O272    O    0.24870   0.37285   0.11524   1.000
    O273    O    0.79527   0.48645   0.01417   1.000
    O274    O    0.78447   0.36461   0.24654   1.000
    O275    O    0.66933   0.29132   0.18073   1.000
    O276    O    0.55535   0.80214   0.16300   1.000
    O277    O    0.68018   0.79475   0.01391   1.000
    O278    O    0.57456   0.85132   0.95504   1.000
    O279    O    0.57338   0.67714   0.49863   1.000
    O280    O    0.35487   0.46618   0.39932   1.000
    O281    O    0.48289   0.46061   0.35380   1.000
    O282    O    0.85475   0.92810   0.45516   1.000
    O283    O    0.05211   0.85420   0.45832   1.000
    O284    O    0.06876   0.90531   0.59206   1.000
    O285    O    0.59298   0.00000   0.74609   1.000
    O286    O    0.50759   0.78107   0.64620   1.000
    O287    O    0.54177   0.74645   0.76800   1.000
    O288    O    0.72361   0.16309   0.55524   1.000
    O289    O    0.82209   0.22497   0.34335   1.000
    O290    O    0.74916   0.11522   0.37386   1.000
    O291    O    0.29518   0.01419   0.48654   1.000
    O292    O    0.28454   0.24657   0.36465   1.000
    O293    O    0.16945   0.18073   0.29130   1.000
    O294    O    0.94407   0.83683   0.19750   1.000
    O295    O    0.81971   0.98571   0.20474   1.000
    O296    O    0.92362   0.04538   0.14643   1.000
    O297    O    0.92649   0.50013   0.31969   1.000
    O298    O    0.14539   0.60080   0.53159   1.000
    O299    O    0.01728   0.64595   0.53834   1.000
    O300    O    0.64415   0.54437   0.07058   1.000
    O301    O    0.44776   0.54138   0.14267   1.000
    O302    O    0.43084   0.40709   0.09380   1.000
    O303    O    0.90726   0.25292   0.00819   1.000
    O304    O    0.99266   0.35230   0.21835   1.000
    O305    O    0.95885   0.23022   0.25265   1.000
    O306    O    0.77638   0.44454   0.83660   1.000
    O307    O    0.67835   0.65665   0.77438   1.000
    O308    O    0.75102   0.62587   0.88411   1.000
    O309    O    0.20472   0.51385   0.00000   1.000
    O310    O    0.21602   0.63226   0.75068   1.000
    O311    O    0.32985   0.70826   0.81600   1.000
loop_
    _geom_bond_atom_site_label_1
    _geom_bond_atom_site_label_2
    _geom_bond_distance
    _geom_bond_site_symmetry_2
    _ccdc_geom_bond_type
    O309   C218      1.43788  1_554   S
    O267   C156      1.22735  1_554   S
    H83    C211      1.13148  1_554   S
    H35    C155      1.08845      .   S
    O303   C212      1.23631      .   S
    C212   N242      1.37340  1_655   S
    C212   C206      1.54479  1_654   S
    O277   C173      1.29196      .   S
    O273   C162      1.25908      .   S
    C173   C172      1.53092      .   S
    C173   O278      1.26618  1_554   S
    H76    C198      1.09968      .   S
    C155   C150      1.39857  1_655   S
    C155   C154      1.39842      .   S
    C150   C151      1.40592      .   S
    C150   C156      1.51143  1_554   S
    O247   C108      1.26599  1_554   S
    H75    C198      1.09858      .   S
    H41    C163      1.10133      .   S
    N242   H97       1.01811      .   S
    N242   C213      1.45149      .   S
    H40    C163      1.09511      .   S
    C162   C154      1.49297      .   S
    C162   N232      1.33699      .   S
    O300   C203      1.25489      .   S
    H52    C172      1.09972      .   S
    H94    N239      1.03474      .   S
    C198   N239      1.44824      .   S
    C198   C199      1.53059      .   S
    C154   C153      1.39397      .   S
    C172   H51       1.09850      .   S
    C172   N233      1.44891      .   S
    C151   H33       1.08873      .   S
    C151   C152      1.40369      .   S
    O302   C205      1.29850      .   S
    C163   N232      1.45662      .   S
    C163   C164      1.54474      .   S
    N239   C197      1.35622      .   S
    H85    C213      1.09789  1_655   S
    H74    C196      1.09146      .   S
    N232   H47       1.02183      .   S
    O272   C161      1.28027      .   S
    C153   C152      1.40156  1_655   S
    C153   H34       1.08580      .   S
    C213   H84       1.10124      .   S
    C213   C214      1.52850  1_455   S
    C152   C159      1.50473      .   S
    H79    C204      1.09843      .   S
    C205   O301      1.25610      .   S
    C205   C204      1.51945      .   S
    C203   C91       1.49955      .   S
    C203   N241      1.35203      .   S
    O296   C199      1.26572  1_545   S
    C199   O295      1.29223      .   S
    C196   C91       1.40639      .   S
    C196   C195      1.40001      .   S
    C197   C195      1.51036      .   S
    C197   O294      1.24110      .   S
    O270   C159      1.26024      .   S
    O276   C171      1.24088      .   S
    N233   H66       1.03464      .   S
    N233   C171      1.35643      .   S
    C159   N231      1.35224      .   S
    C204   N241      1.45185      .   S
    C204   H80       1.09926      .   S
    H13    C127      1.09769      .   S
    O275   C164      1.24255      .   S
    C164   O274      1.28778      .   S
    C91    C90       1.40317      .   S
    C195   C88       1.39964      .   S
    C161   O271      1.27114      .   S
    C161   C160      1.52167      .   S
    C171   C165      1.51012      .   S
    N241   H96       1.01829      .   S
    C214   O304      1.27487      .   S
    C214   O305      1.27516      .   S
    H12    C127      1.10124      .   S
    N231   H46       1.02800      .   S
    N231   C160      1.44837      .   S
    O251   C128      1.27513      .   S
    C127   C128      1.52825      .   S
    C127   N224      1.45138      .   S
    C90    H73       1.09166      .   S
    C90    C89       1.40351      .   S
    C88    H72       1.09023      .   S
    C88    C89       1.39481      .   S
    C160   H39       1.09990      .   S
    C160   H38       1.10118      .   S
    O249   C126      1.23650      .   S
    C89    C200      1.49798      .   S
    H48    C166      1.09025      .   S
    C128   O250      1.27483      .   S
    C165   C166      1.39990      .   S
    C165   C170      1.39969      .   S
    N224   C126      1.37308      .   S
    N224   H21       1.01804      .   S
    O293   C194      1.24252      .   S
    C126   C115      1.51071  1_545   S
    H65    C193      1.10131      .   S
    H50    C170      1.09146      .   S
    C166   C167      1.39499      .   S
    H67    N234      1.01974      .   S
    O297   C200      1.25290      .   S
    C170   C169      1.40634      .   S
    C200   N240      1.40448  1_655   S
    C194   C193      1.54466      .   S
    C194   O292      1.28781      .   S
    H9     C116      1.08870      .   S
    O289   C191      1.27117      .   S
    C193   H64       1.09512      .   S
    C193   N238      1.45662      .   S
    O281   C176      1.27245      .   S
    C115   C116      1.40547      .   S
    C115   C125      1.39849      .   S
    N240   H95       1.01954      .   S
    N240   C201      1.38950      .   S
    N234   C175      1.44875      .   S
    N234   C174      1.35149      .   S
    O290   C191      1.28016      .   S
    C191   C190      1.52164      .   S
    C116   C117      1.40319      .   S
    H63    C190      1.09988      .   S
    H78    C201      1.09975      .   S
    C167   C174      1.49865      .   S
    C167   C168      1.40377      .   S
    H54    C175      1.09962      .   S
    C176   O280      1.27298      .   S
    C176   C175      1.52966      .   S
    H77    C201      1.09751      .   S
    H11    C125      1.13062  1_545   S
    C169   C168      1.40320      .   S
    C169   C177      1.49923      .   S
    H71    N238      1.02185      .   S
    H7     C113      1.09825      .   S
    C175   H53       1.09749      .   S
    C201   C202      1.52883      .   S
    C125   C119      1.39857      .   S
    O124   C114      1.29844      .   S
    N238   C192      1.33692      .   S
    C174   O279      1.25276      .   S
    C190   N237      1.44849      .   S
    C190   H62       1.10122      .   S
    C168   H49       1.09175      .   S
    H8     C113      1.09923      .   S
    H70    N237      1.02810      .   S
    C177   O282      1.25481      .   S
    C177   N235      1.35214      .   S
    O252   C129      1.26011      .   S
    C117   C129      1.50455      .   S
    C117   C118      1.40107      .   S
    H58    C183      1.08576      .   S
    C113   C114      1.51974  1_455   S
    C113   N223      1.45156      .   S
    O283   C179      1.25581      .   S
    O263   C146      1.27253      .   S
    N237   C189      1.35222      .   S
    O262   C146      1.27303      .   S
    H68    N235      1.01831      .   S
    C114   O123      1.25608      .   S
    C119   C118      1.39390      .   S
    C119   C132      1.49319      .   S
    C192   O291      1.25899      .   S
    C192   C184      1.49284      .   S
    C129   N225      1.35208      .   S
    N235   C178      1.45167      .   S
    C118   H10       1.08566      .   S
    C202   O298      1.27281      .   S
    C202   O299      1.27276      .   S
    C146   C145      1.52966      .   S
    O248   C109      1.25293      .   S
    C183   C184      1.39397      .   S
    C183   C182      1.40111      .   S
    O255   C132      1.43605  1_545   S
    H1     C103      1.09162      .   S
    N223   H20       1.01824      .   S
    N223   C112      1.35205      .   S
    C189   C182      1.50470      .   S
    C189   O288      1.26015      .   S
    C184   C185      1.39844      .   S
    C132   N226      1.33718      .   S
    H5     C110      1.09751      .   S
    C179   C178      1.52050  1_455   S
    C179   O284      1.29857      .   S
    H14    C130      1.10134      .   S
    N225   H22       1.02810      .   S
    N225   C130      1.44827      .   S
    O122   C112      1.25506      .   S
    C178   H56       1.09901      .   S
    C178   H55       1.09819      .   S
    C182   C181      1.40365      .   S
    C112   C104      1.49942      .   S
    C103   C104      1.40315      .   S
    C103   C102      1.40332      .   S
    C130   H15       1.09993      .   S
    C130   C131      1.52117      .   S
    C109   C102      1.49786      .   S
    C109   N222      1.35114      .   S
    N226   H23       1.02182      .   S
    N226   C133      1.45699      .   S
    C145   H29       1.09751      .   S
    C145   H30       1.09964      .   S
    C145   N228      1.44874  1_655   S
    C110   H6        1.09972      .   S
    C110   C111      1.52874      .   S
    C110   N222      1.44831      .   S
    C185   H59       1.08841      .   S
    C185   C180      1.39857      .   S
    O120   C111      1.27278      .   S
    C104   C105      1.40637      .   S
    C111   O121      1.27277      .   S
    C102   C101      1.39479      .   S
    C181   C180      1.40554      .   S
    C181   H57       1.08870      .   S
    H16    C133      1.09523      .   S
    C131   O254      1.28016      .   S
    C131   O253      1.27118      .   S
    N222   H19       1.01991      .   S
    H43    N228      1.01992      .   S
    O256   C134      1.28825      .   S
    N228   C144      1.35174      .   S
    C180   C186      1.51109  1_545   S
    O286   C188      1.27481      .   S
    C133   C134      1.54589      .   S
    C133   H17       1.10130      .   S
    C134   O257      1.24271      .   S
    C144   O261      1.25288      .   S
    C144   C137      1.49857      .   S
    C105   H2        1.09148      .   S
    C105   C100      1.40009      .   S
    H69    N236      1.01801      .   S
    C101   C100      1.39964      .   S
    C101   H0        1.09022      .   S
    H86    C216      1.10133      .   S
    C186   N236      1.37311      .   S
    C186   O285      1.22757  1_565   S
    H87    C216      1.09990      .   S
    N236   C187      1.45126      .   S
    C100   C106      1.51041      .   S
    C188   O287      1.27494      .   S
    C188   C187      1.52824      .   S
    C137   C136      1.39498      .   S
    C137   C138      1.40379      .   S
    H24    C136      1.09024      .   S
    H44    N229      1.01830      .   S
    H25    C138      1.09175      .   S
    O269   C158      1.27492      .   S
    C216   N243      1.44824      .   S
    C216   C217      1.52121      .   S
    O310   C220      1.28832      .   S
    C136   C135      1.39990      .   S
    C138   C139      1.40312      .   S
    C187   H60       1.10124      .   S
    C187   H61       1.09770      .   S
    H32    C148      1.09900      .   S
    O307   C217      1.27119      .   S
    O268   C158      1.27481      .   S
    H98    N243      1.02810      .   S
    N243   C215      1.35201      .   S
    O259   C143      1.29190      .   S
    C158   C157      1.52849  1_455   S
    N229   C148      1.45175      .   S
    N229   C147      1.35206      .   S
    O258   C141      1.24088      .   S
    C106   N221      1.35617      .   S
    C106   O245      1.24108      .   S
    C217   O308      1.28010      .   S
    H18    N221      1.03475      .   S
    C135   C141      1.51001      .   S
    C135   C140      1.39963      .   S
    C220   O311      1.24270      .   S
    C220   C219      1.54580      .   S
    C139   C140      1.40635      .   S
    C139   C147      1.49905      .   S
    C148   C149      1.52021      .   S
    C148   H31       1.09818      .   S
    C215   O306      1.26014      .   S
    C215   C208      1.50437      .   S
    N221   C107      1.44825      .   S
    C141   N227      1.35645      .   S
    H99    N244      1.02180      .   S
    C140   H26       1.09147      .   S
    H82    C209      1.08565      .   S
    H36    C157      1.10122      .   S
    C143   O260      1.26598  1_545   S
    C143   C142      1.53089      .   S
    C147   O264      1.25478      .   S
    O265   C149      1.25573      .   S
    C149   O266      1.29848      .   S
    C208   C209      1.40136  1_655   S
    C208   C207      1.40317      .   S
    C157   H37       1.09792  1_655   S
    C157   N230      1.45123      .   S
    C209   C210      1.39380      .   S
    N244   C219      1.45702      .   S
    N244   C218      1.33709      .   S
    C219   H92       1.09523      .   S
    C219   H93       1.10130      .   S
    N227   C142      1.44881      .   S
    N227   H42       1.03460      .   S
    H3     C107      1.09858      .   S
    H81    C207      1.08870      .   S
    C207   C206      1.54558  1_655   S
    C107   H4        1.09970      .   S
    C107   C108      1.53057      .   S
    C210   C218      1.49301      .   S
    C210   C211      1.39860      .   S
    C142   H27       1.09852      .   S
    C142   H28       1.09972      .   S
    H45    N230      1.01801      .   S
    N230   C156      1.37344  1_655   S
    C206   C211      1.25675      .   S
    C108   O246      1.29213      .   S
