# CIF file generated by openbabel 2.4.90, see http://openbabel.sf.net
data_I
_chemical_name_common ''
_cell_length_a 16.167
_cell_length_b 16.49
_cell_length_c 16.492
_cell_angle_alpha 98.472
_cell_angle_beta 93.827
_cell_angle_gamma 93.835
_space_group_name_H-M_alt 'P 1'
_space_group_name_Hall 'P 1'
loop_
    _symmetry_equiv_pos_as_xyz
    x,y,z
loop_
    _atom_site_label
    _atom_site_type_symbol
    _atom_site_fract_x
    _atom_site_fract_y
    _atom_site_fract_z
    _atom_site_occupancy
    Zr0     Zr   0.38804   0.27555   0.11093   1.000
    Zr1     Zr   0.39597   0.33236   0.35868   1.000
    Zr2     Zr   0.81485   0.06527   0.49013   1.000
    Zr3     Zr   0.11188   0.88843   0.72357   1.000
    Zr4     Zr   0.10420   0.64025   0.66591   1.000
    Zr5     Zr   0.68503   0.50964   0.93396   1.000
    Zr6     Zr   0.61186   0.72347   0.88845   1.000
    Zr7     Zr   0.60424   0.66593   0.64034   1.000
    Zr8     Zr   0.18493   0.93408   0.50977   1.000
    Zr9     Zr   0.88827   0.11065   0.27607   1.000
    Zr10    Zr   0.89589   0.35855   0.33227   1.000
    Zr11    Zr   0.31459   0.48925   0.06481   1.000
    N12     N    0.32058   0.22595   0.65950   1.000
    O13     O    0.47270   0.41236   0.64004   1.000
    O14     O    0.44067   0.41404   0.65132   1.000
    O15     O    0.24247   0.11420   0.59330   1.000
    O16     O    0.10089   0.16568   0.58769   1.000
    O17     O    0.36591   0.27600   0.54447   1.000
    O18     O    0.11511   0.16414   0.50075   1.000
    O19     O    0.09675   0.15279   0.55427   1.000
    O20     O    0.33724   0.23301   0.85390   1.000
    O21     O    0.36320   0.21842   0.86882   1.000
    N22     N    0.50351   0.92584   0.46957   1.000
    O23     O    0.36708   0.90560   0.47338   1.000
    O24     O    0.32428   0.87862   0.57983   1.000
    O25     O    0.32236   0.81657   0.56542   1.000
    O26     O    0.34246   0.90606   0.57216   1.000
    O27     O    0.36072   0.91747   0.51871   1.000
    O28     O    0.63164   0.97924   0.48580   1.000
    O29     O    0.58182   0.81708   0.55293   1.000
    O30     O    0.47395   0.10059   0.41262   1.000
    O31     O    0.46345   0.09496   0.32019   1.000
    O32     O    0.46544   0.10917   0.38212   1.000
    N33     N    0.17882   0.34008   0.77289   1.000
    O34     O    0.02708   0.35950   0.58603   1.000
    O35     O    0.05910   0.34815   0.58460   1.000
    O36     O    0.25674   0.40610   0.88460   1.000
    O37     O    0.39869   0.41199   0.83347   1.000
    O38     O    0.38458   0.49889   0.83486   1.000
    O39     O    0.40288   0.44543   0.84623   1.000
    O40     O    0.16244   0.14563   0.76602   1.000
    O41     O    0.13616   0.13085   0.78028   1.000
    O42     O    0.13379   0.45473   0.72220   1.000
    N43     N    0.49653   0.07378   0.52991   1.000
    O44     O    0.36830   0.02396   0.51403   1.000
    O45     O    0.41840   0.18162   0.44578   1.000
    O46     O    0.52622   0.89864   0.58659   1.000
    O47     O    0.53667   0.90437   0.67906   1.000
    O48     O    0.53477   0.88999   0.61704   1.000
    O49     O    0.63288   0.09398   0.52629   1.000
    O50     O    0.67586   0.12080   0.41981   1.000
    O51     O    0.67776   0.18277   0.43386   1.000
    O52     O    0.63927   0.08201   0.48095   1.000
    O53     O    0.65763   0.09336   0.42744   1.000
    N54     N    0.82075   0.65945   0.22581   1.000
    O55     O    0.83737   0.85381   0.23311   1.000
    O56     O    0.86335   0.86873   0.21853   1.000
    O57     O    0.86597   0.54440   0.27590   1.000
    O58     O    0.97277   0.63999   0.41228   1.000
    O59     O    0.94075   0.65127   0.41397   1.000
    O60     O    0.74267   0.59323   0.11404   1.000
    O61     O    0.60096   0.58738   0.16478   1.000
    O62     O    0.61510   0.50038   0.16409   1.000
    O63     O    0.59673   0.55381   0.15256   1.000
    N64     N    0.00378   0.46946   0.92578   1.000
    O65     O    0.97403   0.41245   0.10055   1.000
    O66     O    0.96367   0.31995   0.09507   1.000
    O67     O    0.96557   0.38193   0.10912   1.000
    O68     O    0.86724   0.47328   0.90553   1.000
    O69     O    0.82444   0.57976   0.87860   1.000
    O70     O    0.82254   0.56538   0.81657   1.000
    O71     O    0.86090   0.51861   0.91741   1.000
    O72     O    0.84261   0.57207   0.90603   1.000
    O73     O    0.13172   0.48551   0.97909   1.000
    O74     O    0.08194   0.55286   0.81704   1.000
    N75     N    0.67878   0.77300   0.34016   1.000
    O76     O    0.66240   0.76606   0.14567   1.000
    O77     O    0.63599   0.78020   0.13095   1.000
    O78     O    0.63379   0.72227   0.45483   1.000
    O79     O    0.52710   0.58614   0.35958   1.000
    O80     O    0.55910   0.58474   0.34820   1.000
    O81     O    0.75679   0.88484   0.40640   1.000
    O82     O    0.89865   0.83357   0.41211   1.000
    O83     O    0.88455   0.83493   0.49899   1.000
    O84     O    0.90281   0.84635   0.44554   1.000
    N85     N    0.99658   0.52975   0.07382   1.000
    O86     O    0.91838   0.44567   0.18161   1.000
    O87     O    0.02624   0.58648   0.89866   1.000
    O88     O    0.03669   0.67898   0.90442   1.000
    O89     O    0.03477   0.61693   0.89001   1.000
    O90     O    0.13288   0.52589   0.09386   1.000
    O91     O    0.17584   0.41959   0.12092   1.000
    O92     O    0.17782   0.43379   0.18286   1.000
    O93     O    0.15747   0.42697   0.09345   1.000
    O94     O    0.13911   0.48040   0.08192   1.000
    O95     O    0.86836   0.51389   0.02394   1.000
loop_
    _geom_bond_atom_site_label_1
    _geom_bond_atom_site_label_2
    _geom_bond_distance
    _geom_bond_site_symmetry_2
    _ccdc_geom_bond_type
    N12    O13       3.87113      .   S
    Zr7    O13       4.56177      .   S
    N12    O14       3.57221      .   S
    Zr7    O14       4.80580      .   S
    N12    O15       2.25691      .   S
    Zr8    O15       3.13671  1_565   S
    N12    O16       3.69112      .   S
    Zr2    O16       4.89012  1_655   S
    N12    O17       2.32017      .   S
    Zr1    O17       3.38621      .   S
    N12    O18       4.06532      .   S
    Zr9    O18       4.97475  1_655   S
    N12    O19       3.93975      .   S
    Zr2    O19       4.69047  1_655   S
    N12    O20       3.18371      .   S
    Zr0    O20       4.20914  1_554   S
    N12    O21       3.49683      .   S
    Zr0    O21       3.95209  1_554   S
    N22    O23       2.21503      .   S
    Zr8    O23       3.09685      .   S
    N22    O24       3.62323      .   S
    Zr3    O24       4.29948      .   S
    N22    O25       3.88241      .   S
    Zr4    O25       4.94666      .   S
    N22    O26       3.22264      .   S
    Zr3    O26       4.63981      .   S
    N22    O27       2.49899      .   S
    Zr8    O27       2.86941      .   S
    N22    O28       2.17964      .   S
    Zr2    O28       3.18903  1_545   S
    N22    O29       2.73991      .   S
    Zr7    O29       3.08725      .   S
    N22    O30       3.21504  1_565   S
    Zr1    O30       4.29933      .   S
    N22    O31       4.03979  1_565   S
    Zr0    O31       5.02149      .   S
    N22    O32       3.60737  1_565   S
    Zr1    O32       3.98382      .   S
    N33    O34       3.87340      .   S
    Zr10   O34       4.56126  1_655   S
    N33    O35       3.57221      .   S
    Zr10   O35       4.80768  1_655   S
    N33    O36       2.25433      .   S
    Zr11   O36       3.13748  1_554   S
    N33    O37       3.69501      .   S
    Zr5    O37       4.89496      .   S
    N33    O38       4.06948      .   S
    Zr6    O38       4.97777      .   S
    N33    O39       3.94415      .   S
    Zr5    O39       4.69503      .   S
    N33    O40       3.18431      .   S
    Zr3    O40       4.21095  1_565   S
    N33    O41       3.49457      .   S
    Zr3    O41       3.95577  1_565   S
    N33    O42       2.31772      .   S
    Zr4    O42       3.37967      .   S
    N43    O44       2.16291      .   S
    Zr8    O44       3.21607  1_565   S
    N43    O45       2.73428      .   S
    Zr1    O45       3.07847      .   S
    N43    O46       3.21965  1_545   S
    Zr7    O46       4.31308      .   S
    N43    O47       4.04113  1_545   S
    Zr6    O47       5.02595      .   S
    N43    O48       3.61220  1_545   S
    Zr7    O48       3.99692      .   S
    N43    O49       2.21331      .   S
    Zr2    O49       3.09378      .   S
    N43    O50       3.62209      .   S
    Zr9    O50       4.29969      .   S
    N43    O51       3.88297      .   S
    Zr10   O51       4.94947      .   S
    N43    O52       2.49688      .   S
    Zr2    O52       2.86639      .   S
    N43    O53       3.22159      .   S
    Zr9    O53       4.63976      .   S
    N54    O55       3.18213      .   S
    Zr9    O55       4.20564  1_545   S
    N54    O56       3.49479      .   S
    Zr9    O56       3.94904  1_545   S
    N54    O57       2.32010      .   S
    Zr10   O57       3.38636      .   S
    N54    O58       3.87143      .   S
    Zr4    O58       4.56271  1_455   S
    N54    O59       3.57286      .   S
    Zr4    O59       4.80644  1_455   S
    N54    O60       2.25737      .   S
    Zr5    O60       3.13715  1_556   S
    N54    O61       3.69554      .   S
    Zr11   O61       4.89543      .   S
    N54    O62       4.07011      .   S
    Zr0    O62       4.97810      .   S
    N54    O63       3.94500      .   S
    Zr11   O63       4.69573      .   S
    N64    O65       3.21647  1_456   S
    Zr10   O65       4.29947      .   S
    N64    O66       4.04352  1_456   S
    Zr9    O66       5.02666      .   S
    N64    O67       3.60883  1_456   S
    Zr10   O67       3.98437      .   S
    N64    O68       2.21686  1_455   S
    Zr5    O68       3.09760      .   S
    N64    O69       3.62506  1_455   S
    Zr6    O69       4.30170      .   S
    N64    O70       3.88406  1_455   S
    Zr7    O70       4.94833      .   S
    N64    O71       2.50044  1_455   S
    Zr5    O71       2.87059      .   S
    N64    O72       3.22441  1_455   S
    Zr6    O72       4.64213      .   S
    N64    O73       2.17635      .   S
    Zr11   O73       3.18352  1_554   S
    N64    O74       2.73879      .   S
    Zr4    O74       3.08651      .   S
    N75    O76       3.18531      .   S
    Zr6    O76       4.21182  1_556   S
    N75    O77       3.49431      .   S
    Zr6    O77       3.95769  1_556   S
    N75    O78       2.31793      .   S
    Zr7    O78       3.38006      .   S
    N75    O79       3.87240      .   S
    Zr1    O79       4.56036      .   S
    N75    O80       3.57070      .   S
    Zr1    O80       4.80729      .   S
    N75    O81       2.25758      .   S
    Zr2    O81       3.14366  1_545   S
    N75    O82       3.69511      .   S
    Zr8    O82       4.89442  1_455   S
    N75    O83       4.07002      .   S
    Zr3    O83       4.97898  1_455   S
    N75    O84       3.94412      .   S
    Zr8    O84       4.69460  1_455   S
    N85    O86       2.73365      .   S
    Zr10   O86       3.07758      .   S
    N85    O87       3.22038  1_654   S
    Zr4    O87       4.31370      .   S
    N85    O88       4.04164  1_654   S
    Zr3    O88       5.02597      .   S
    N85    O89       3.61288  1_654   S
    Zr4    O89       3.99769      .   S
    N85    O90       2.21283  1_655   S
    Zr11   O90       3.09271      .   S
    N85    O91       3.62234  1_655   S
    Zr0    O91       4.29993      .   S
    N85    O92       3.88307  1_655   S
    Zr1    O92       4.94948      .   S
    N85    O93       3.22218  1_655   S
    Zr0    O93       4.63970      .   S
    N85    O94       2.49637  1_655   S
    Zr11   O94       2.86578      .   S
    N85    O95       2.16290      .   S
    Zr5    O95       3.21664  1_556   S
