# CIF file generated by openbabel 2.4.90, see http://openbabel.sf.net
data_I
_chemical_name_common ''
_cell_length_a 16.167
_cell_length_b 16.49
_cell_length_c 16.492
_cell_angle_alpha 98.472
_cell_angle_beta 93.827
_cell_angle_gamma 93.835
_space_group_name_H-M_alt 'P 1'
_space_group_name_Hall 'P 1'
loop_
    _symmetry_equiv_pos_as_xyz
    x,y,z
loop_
    _atom_site_label
    _atom_site_type_symbol
    _atom_site_fract_x
    _atom_site_fract_y
    _atom_site_fract_z
    _atom_site_occupancy
    N0      N    0.32058   0.22595   0.65950   1.000
    N1      N    0.50351   0.92584   0.46957   1.000
    N2      N    0.17882   0.34008   0.77289   1.000
    N3      N    0.49653   0.07378   0.52991   1.000
    N4      N    0.82075   0.65945   0.22581   1.000
    N5      N    0.00378   0.46946   0.92578   1.000
    N6      N    0.67878   0.77300   0.34016   1.000
    N7      N    0.99658   0.52975   0.07382   1.000
    Zr8     Zr   0.89589   0.35855   0.33227   1.000
    O9      O    0.78682   0.27066   0.38307   1.000
    O10     O    0.90713   0.40211   0.25694   1.000
    O11     O    0.88093   0.45148   0.30409   1.000
    O12     O    0.93496   0.38550   0.21641   1.000
    O13     O    0.93073   0.37024   0.22070   1.000
    O14     O    0.97749   0.35335   0.45844   1.000
    O15     O    0.96149   0.35903   0.45915   1.000
    Zr16    Zr   0.39597   0.33236   0.35868   1.000
    O17     O    0.28690   0.38308   0.27077   1.000
    O18     O    0.47754   0.45855   0.35344   1.000
    O19     O    0.40718   0.25699   0.40223   1.000
    O20     O    0.38094   0.30418   0.45157   1.000
    O21     O    0.43496   0.21648   0.38565   1.000
    O22     O    0.43071   0.22076   0.37040   1.000
    O23     O    0.46154   0.45925   0.35913   1.000
    Zr24    Zr   0.68503   0.50964   0.93396   1.000
    O25     O    0.77670   0.51176   0.97895   1.000
    O26     O    0.71385   0.55143   0.02400   1.000
    O27     O    0.77297   0.51412   0.92568   1.000
    O28     O    0.77614   0.49146   0.91974   1.000
    O29     O    0.54395   0.47753   0.89009   1.000
    O30     O    0.54186   0.46081   0.88371   1.000
    Zr31    Zr   0.60424   0.66593   0.64034   1.000
    O32     O    0.53847   0.53915   0.64019   1.000
    O33     O    0.52245   0.53999   0.64583   1.000
    O34     O    0.59303   0.74151   0.59663   1.000
    O35     O    0.71339   0.61566   0.72845   1.000
    O36     O    0.56950   0.77796   0.62869   1.000
    O37     O    0.56523   0.78229   0.61346   1.000
    O38     O    0.61902   0.69410   0.54758   1.000
    Zr39    Zr   0.10420   0.64025   0.66591   1.000
    O40     O    0.03849   0.64012   0.53910   1.000
    O41     O    0.06522   0.61336   0.78229   1.000
    O42     O    0.21328   0.72841   0.61566   1.000
    O43     O    0.06948   0.62859   0.77796   1.000
    O44     O    0.02247   0.64576   0.53994   1.000
    O45     O    0.11899   0.54749   0.69406   1.000
    O46     O    0.09307   0.59656   0.74148   1.000
    Zr47    Zr   0.88827   0.11065   0.27607   1.000
    O48     O    0.77295   0.10200   0.35175   1.000
    O49     O    0.78206   0.11572   0.34794   1.000
    O50     O    0.86282   0.98223   0.25459   1.000
    O51     O    0.87581   0.98969   0.24730   1.000
    O52     O    0.00169   0.13739   0.38841   1.000
    O53     O    0.92597   0.21530   0.18557   1.000
    Zr54    Zr   0.38804   0.27555   0.11093   1.000
    O55     O    0.27276   0.35126   0.10219   1.000
    O56     O    0.28194   0.34757   0.11593   1.000
    O57     O    0.42575   0.18525   0.21556   1.000
    O58     O    0.36264   0.25428   0.98242   1.000
    O59     O    0.37562   0.24698   0.98988   1.000
    O60     O    0.50157   0.38796   0.13751   1.000
    Zr61    Zr   0.18493   0.93408   0.50977   1.000
    O62     O    0.04387   0.89021   0.47766   1.000
    O63     O    0.04179   0.88382   0.46094   1.000
    O64     O    0.27661   0.97902   0.51190   1.000
    O65     O    0.21370   0.02414   0.55154   1.000
    O66     O    0.27283   0.92578   0.51424   1.000
    O67     O    0.27601   0.91984   0.49158   1.000
    Zr68    Zr   0.81485   0.06527   0.49013   1.000
    O69     O    0.72706   0.07364   0.48554   1.000
    O70     O    0.78582   0.97506   0.44827   1.000
    O71     O    0.95787   0.11548   0.53891   1.000
    O72     O    0.72324   0.02225   0.48796   1.000
    O73     O    0.95580   0.10903   0.52220   1.000
    O74     O    0.72386   0.07963   0.50821   1.000
    Zr75    Zr   0.31459   0.48925   0.06481   1.000
    O76     O    0.22685   0.48482   0.07336   1.000
    O77     O    0.22373   0.50757   0.07933   1.000
    O78     O    0.45777   0.53831   0.11479   1.000
    O79     O    0.28566   0.44767   0.97470   1.000
    O80     O    0.45566   0.52153   0.10868   1.000
    O81     O    0.22315   0.48738   0.02195   1.000
    Zr82    Zr   0.61186   0.72347   0.88845   1.000
    O83     O    0.57427   0.81392   0.78375   1.000
    O84     O    0.71815   0.65162   0.88352   1.000
    O85     O    0.72723   0.64777   0.89724   1.000
    O86     O    0.49822   0.61118   0.86165   1.000
    O87     O    0.62393   0.75183   0.00970   1.000
    O88     O    0.63713   0.74476   0.01706   1.000
    Zr89    Zr   0.11188   0.88843   0.72357   1.000
    O90     O    0.99821   0.86168   0.61128   1.000
    O91     O    0.07428   0.78370   0.81400   1.000
    O92     O    0.21808   0.88352   0.65170   1.000
    O93     O    0.22717   0.89724   0.64786   1.000
    O94     O    0.13716   0.01703   0.74479   1.000
    O95     O    0.12402   0.00964   0.75192   1.000
loop_
    _geom_bond_atom_site_label_1
    _geom_bond_atom_site_label_2
    _geom_bond_distance
    _geom_bond_site_symmetry_2
    _ccdc_geom_bond_type
    Zr8    O9        2.47473      .   S
    N3     O9        6.34239      .   S
    Zr8    O10       1.53879      .   S
    N7     O10       4.20600      .   S
    Zr8    O11       1.69318      .   S
    N4     O11       3.99467      .   S
    Zr8    O12       2.14973      .   S
    N5     O12       5.34691  1_456   S
    Zr8    O13       1.99219      .   S
    N5     O13       5.53001  1_456   S
    Zr8    O14       2.40384      .   S
    N2     O14       5.97600  1_455   S
    Zr8    O15       2.28063      .   S
    N2     O15       6.11646  1_455   S
    Zr16   O17       2.47474      .   S
    N7     O17       6.34250  1_655   S
    Zr16   O18       2.40365      .   S
    N6     O18       5.97430      .   S
    Zr16   O19       1.53923      .   S
    N3     O19       4.20709      .   S
    Zr16   O20       1.69311      .   S
    N0     O20       3.99465      .   S
    Zr16   O21       2.14966      .   S
    N1     O21       5.34541  1_565   S
    Zr16   O22       1.99191      .   S
    N1     O22       5.52857  1_565   S
    Zr16   O23       2.28018      .   S
    N6     O23       6.11501      .   S
    Zr24   O25       1.60832      .   S
    N7     O25       3.76198  1_554   S
    Zr24   O26       1.56857  1_556   S
    N4     O26       3.78298      .   S
    Zr24   O27       1.43530      .   S
    N5     O27       3.85151  1_455   S
    Zr24   O28       1.54880      .   S
    N5     O28       3.71840  1_455   S
    Zr24   O29       2.34751      .   S
    N2     O29       6.25429      .   S
    Zr24   O30       2.44748      .   S
    N2     O30       6.13882      .   S
    Zr31   O32       2.28089      .   S
    N0     O32       6.11436      .   S
    Zr31   O33       2.40290      .   S
    N0     O33       5.97507      .   S
    Zr31   O34       1.54363      .   S
    N1     O34       4.21730      .   S
    Zr31   O35       2.47416      .   S
    N5     O35       6.34261  1_455   S
    Zr31   O36       1.99846      .   S
    N3     O36       5.54045  1_545   S
    Zr31   O37       2.15654      .   S
    N3     O37       5.35713  1_545   S
    Zr31   O38       1.69003      .   S
    N6     O38       3.98895      .   S
    Zr39   O40       2.28135      .   S
    N4     O40       6.11515  1_655   S
    Zr39   O41       2.15685      .   S
    N7     O41       5.35818  1_654   S
    Zr39   O42       2.47333      .   S
    N1     O42       6.34011      .   S
    Zr39   O43       1.99884      .   S
    N7     O43       5.54145  1_654   S
    Zr39   O44       2.40322      .   S
    N4     O44       5.97603  1_655   S
    Zr39   O45       1.68984      .   S
    N2     O45       3.98852      .   S
    Zr39   O46       1.54326      .   S
    N5     O46       4.21579      .   S
    Zr47   O48       2.31988      .   S
    N3     O48       5.54045      .   S
    Zr47   O49       2.14984      .   S
    N3     O49       5.72949      .   S
    Zr47   O50       2.10282  1_545   S
    N4     O50       5.26751      .   S
    Zr47   O51       1.97452  1_545   S
    N4     O51       5.41420      .   S
    Zr47   O52       2.48737  1_655   S
    N0     O52       6.53381      .   S
    Zr47   O53       2.51333      .   S
    N5     O53       6.54296  1_456   S
    Zr54   O55       2.31985      .   S
    N7     O55       5.54103  1_655   S
    Zr54   O56       2.14996      .   S
    N7     O56       5.72991  1_655   S
    Zr54   O57       2.51075      .   S
    N1     O57       6.53649  1_565   S
    Zr54   O58       2.10457  1_554   S
    N0     O58       5.27102      .   S
    Zr54   O59       1.97605  1_554   S
    N0     O59       5.41793      .   S
    Zr54   O60       2.48905      .   S
    N4     O60       6.54035      .   S
    Zr61   O62       2.34730      .   S
    N6     O62       6.25404  1_655   S
    Zr61   O63       2.44721      .   S
    N6     O63       6.13864  1_655   S
    Zr61   O64       1.60804      .   S
    N3     O64       3.76170  1_545   S
    Zr61   O65       1.56836  1_565   S
    N0     O65       3.78206      .   S
    Zr61   O66       1.43470      .   S
    N1     O66       3.84943      .   S
    Zr61   O67       1.54843      .   S
    N1     O67       3.71612      .   S
    Zr68   O69       1.43320      .   S
    N3     O69       3.84573      .   S
    Zr68   O70       1.57183  1_545   S
    N6     O70       3.78699      .   S
    Zr68   O71       2.44506      .   S
    N0     O71       6.13238  1_455   S
    Zr68   O72       1.59451      .   S
    N1     O72       3.76805  1_565   S
    Zr68   O73       2.34523      .   S
    N0     O73       6.24764  1_455   S
    Zr68   O74       1.54689      .   S
    N3     O74       3.71254      .   S
    Zr75   O76       1.43289      .   S
    N7     O76       3.84437  1_655   S
    Zr75   O77       1.54636      .   S
    N7     O77       3.71126  1_655   S
    Zr75   O78       2.44771      .   S
    N4     O78       6.13997      .   S
    Zr75   O79       1.56874  1_554   S
    N2     O79       3.78043      .   S
    Zr75   O80       2.34787      .   S
    N4     O80       6.25548      .   S
    Zr75   O81       1.59176      .   S
    N5     O81       3.76188  1_556   S
    Zr82   O83       2.51297      .   S
    N3     O83       6.54004  1_545   S
    Zr82   O84       2.15085      .   S
    N5     O84       5.73361  1_455   S
    Zr82   O85       2.32106      .   S
    N5     O85       5.54446  1_455   S
    Zr82   O86       2.48889      .   S
    N2     O86       6.53961      .   S
    Zr82   O87       1.97884  1_556   S
    N6     O87       5.41885      .   S
    Zr82   O88       2.10591  1_556   S
    N6     O88       5.27380      .   S
    Zr89   O90       2.48949  1_455   S
    N6     O90       6.54076      .   S
    Zr89   O91       2.51298      .   S
    N7     O91       6.54055  1_654   S
    Zr89   O92       2.14974      .   S
    N1     O92       5.73065      .   S
    Zr89   O93       2.31991      .   S
    N1     O93       5.54154      .   S
    Zr89   O94       2.10548  1_565   S
    N2     O94       5.27238      .   S
    Zr89   O95       1.97789  1_565   S
    N2     O95       5.41803      .   S
