# CIF file generated by openbabel 2.4.90, see http://openbabel.sf.net
data_I
_chemical_name_common ''
_cell_length_a 21.562
_cell_length_b 17.666
_cell_length_c 17.196
_cell_angle_alpha 89.986
_cell_angle_beta 89.955
_cell_angle_gamma 90.011
_space_group_name_H-M_alt 'P 1'
_space_group_name_Hall 'P 1'
loop_
    _symmetry_equiv_pos_as_xyz
    x,y,z
loop_
    _atom_site_label
    _atom_site_type_symbol
    _atom_site_fract_x
    _atom_site_fract_y
    _atom_site_fract_z
    _atom_site_occupancy
    Zn0     Zn   0.58114   0.21260   0.48648   1.000
    Zn1     Zn   0.28778   0.65982   0.91964   1.000
    Zn2     Zn   0.78879   0.65990   0.91986   1.000
    Zn3     Zn   0.33615   0.60276   0.10058   1.000
    Zn4     Zn   0.83693   0.60279   0.10067   1.000
    Zn5     Zn   0.16275   0.60361   0.01639   1.000
    Zn6     Zn   0.66387   0.60374   0.01621   1.000
    Zn7     Zn   0.17018   0.78695   0.98578   1.000
    Zn8     Zn   0.66945   0.78665   0.98590   1.000
    Zn9     Zn   0.46164   0.33755   0.41985   1.000
    Zn10    Zn   0.96176   0.33766   0.41908   1.000
    Zn11    Zn   0.41345   0.39658   0.60035   1.000
    Zn12    Zn   0.91432   0.39685   0.60015   1.000
    Zn13    Zn   0.08584   0.39418   0.51650   1.000
    Zn14    Zn   0.58669   0.39416   0.51650   1.000
    Zn15    Zn   0.41898   0.71277   0.01349   1.000
    Zn16    Zn   0.91995   0.71280   0.01359   1.000
    Zn17    Zn   0.21081   0.15960   0.57948   1.000
    Zn18    Zn   0.71219   0.15982   0.58003   1.000
    Zn19    Zn   0.16309   0.10264   0.39693   1.000
    Zn20    Zn   0.66410   0.10267   0.39919   1.000
    Zn21    Zn   0.33618   0.10338   0.48317   1.000
    Zn22    Zn   0.83727   0.10400   0.48300   1.000
    Zn23    Zn   0.33054   0.28486   0.51332   1.000
    Zn24    Zn   0.82975   0.28687   0.51330   1.000
    Zn25    Zn   0.03919   0.83822   0.08000   1.000
    Zn26    Zn   0.53860   0.83762   0.07989   1.000
    Zn27    Zn   0.08574   0.89671   0.89708   1.000
    Zn28    Zn   0.58640   0.89646   0.89713   1.000
    Zn29    Zn   0.41340   0.89403   0.98333   1.000
    Zn30    Zn   0.91433   0.89443   0.98295   1.000
    H31     H    0.00530   0.29486   0.54915   1.000
    Zn32    Zn   0.08008   0.21251   0.48413   1.000
    H33     H    0.50596   0.29513   0.54974   1.000
    H34     H    0.11408   0.09426   0.54177   1.000
    H35     H    0.61474   0.09442   0.54419   1.000
    H36     H    0.24373   0.70236   0.04988   1.000
    H37     H    0.74418   0.70301   0.04954   1.000
    H38     H    0.13513   0.90511   0.04154   1.000
    H39     H    0.63449   0.90440   0.04276   1.000
    H40     H    0.49443   0.79562   0.95010   1.000
    H41     H    0.99503   0.79549   0.95012   1.000
    H42     H    0.38504   0.59495   0.95520   1.000
    H43     H    0.88601   0.59480   0.95540   1.000
    H44     H    0.25547   0.20224   0.44964   1.000
    H45     H    0.75592   0.20234   0.44935   1.000
    H46     H    0.36472   0.40328   0.45546   1.000
    H47     H    0.86509   0.40431   0.45562   1.000
    C48     C    0.80192   0.03989   0.63355   1.000
    C49     C    0.33032   0.80455   0.86670   1.000
    C50     C    0.83106   0.80484   0.86740   1.000
    C51     C    0.21394   0.89228   0.85512   1.000
    C52     C    0.21962   0.50134   0.13351   1.000
    C53     C    0.72061   0.50063   0.13269   1.000
    C54     C    0.17122   0.26343   0.35881   1.000
    C55     C    0.67109   0.26370   0.35941   1.000
    C56     C    0.28324   0.37051   0.37714   1.000
    C57     C    0.78314   0.37092   0.37704   1.000
    C58     C    0.19849   0.53925   0.86601   1.000
    C59     C    0.69884   0.54026   0.86566   1.000
    O60     O    0.18932   0.24014   0.65353   1.000
    O61     O    0.69069   0.24074   0.65376   1.000
    O62     O    0.14161   0.31533   0.56700   1.000
    O63     O    0.64230   0.31535   0.56736   1.000
    O64     O    0.33765   0.42532   0.65750   1.000
    C65     C    0.16932   0.30461   0.63167   1.000
    C66     C    0.67015   0.30496   0.63201   1.000
    C67     C    0.28620   0.39155   0.64386   1.000
    C68     C    0.78657   0.39194   0.64430   1.000
    C69     C    0.02928   0.49846   0.63328   1.000
    C70     C    0.52986   0.49752   0.63355   1.000
    C71     C    0.07975   0.73570   0.85877   1.000
    C72     C    0.57873   0.73577   0.85887   1.000
    C73     C    0.46739   0.62751   0.87801   1.000
    C74     C    0.96763   0.62837   0.87741   1.000
    C75     C    0.05171   0.45860   0.36630   1.000
    C76     C    0.55084   0.45823   0.36612   1.000
    C77     C    0.08049   0.69368   0.13217   1.000
    C78     C    0.58043   0.69289   0.13179   1.000
    C79     C    0.46307   0.60680   0.14476   1.000
    C80     C    0.96375   0.60745   0.14524   1.000
    C81     C    0.27921   0.00055   0.36612   1.000
    C82     C    0.78047   0.00104   0.36610   1.000
    C83     C    0.32868   0.76422   0.13953   1.000
    C84     C    0.82878   0.76390   0.13926   1.000
    C85     C    0.21694   0.87151   0.12135   1.000
    C86     C    0.71586   0.87071   0.12271   1.000
    C87     C    0.30125   0.03911   0.63247   1.000
    C88     C    0.71447   0.89174   0.85533   1.000
    C89     C    0.46984   0.99752   0.86612   1.000
    C90     C    0.96993   0.99817   0.86500   1.000
    C91     C    0.42041   0.23495   0.64021   1.000
    C92     C    0.92063   0.23531   0.63880   1.000
    C93     C    0.03205   0.12699   0.62001   1.000
    C94     C    0.53288   0.12822   0.62251   1.000
    C95     C    0.44937   0.95827   0.13362   1.000
    C96     C    0.94822   0.95824   0.13315   1.000
    C97     C    0.41996   0.19270   0.36784   1.000
    C98     C    0.91918   0.19422   0.36594   1.000
    C99     C    0.03590   0.10776   0.35329   1.000
    C100    C    0.53717   0.10668   0.35516   1.000
    O101    O    0.27441   0.52775   0.13001   1.000
    O102    O    0.77540   0.52721   0.13006   1.000
    O103    O    0.17332   0.52205   0.09249   1.000
    O104    O    0.67478   0.52103   0.09065   1.000
    O105    O    0.19704   0.19862   0.34987   1.000
    O106    O    0.69646   0.19875   0.35002   1.000
    O107    O    0.12846   0.27851   0.40699   1.000
    O108    O    0.62912   0.27901   0.40863   1.000
    O109    O    0.31984   0.42491   0.38991   1.000
    O110    O    0.81909   0.42578   0.39022   1.000
    O111    O    0.28037   0.30920   0.41717   1.000
    O112    O    0.78106   0.30918   0.41653   1.000
    O113    O    0.24786   0.57865   0.86000   1.000
    O114    O    0.74874   0.57878   0.86046   1.000
    O115    O    0.15708   0.54463   0.91903   1.000
    O116    O    0.65691   0.54662   0.91786   1.000
    O117    O    0.83868   0.42348   0.65932   1.000
    O118    O    0.27687   0.34359   0.59023   1.000
    O119    O    0.77620   0.34606   0.58903   1.000
    O120    O    0.02414   0.31202   0.50000   1.000
    O121    O    0.52465   0.31204   0.50047   1.000
    O122    O    0.14431   0.12595   0.50765   1.000
    O123    O    0.64518   0.12558   0.50969   1.000
    O124    O    0.47473   0.47205   0.62999   1.000
    O125    O    0.97372   0.47429   0.62900   1.000
    O126    O    0.07513   0.47576   0.59260   1.000
    O127    O    0.57604   0.47582   0.59283   1.000
    O128    O    0.05332   0.80011   0.84984   1.000
    O129    O    0.55227   0.80024   0.85003   1.000
    O130    O    0.12261   0.72124   0.90692   1.000
    O131    O    0.62174   0.72142   0.90683   1.000
    O132    O    0.42975   0.57388   0.88961   1.000
    O133    O    0.93099   0.57394   0.88990   1.000
    O134    O    0.47161   0.68753   0.91981   1.000
    O135    O    0.97051   0.68938   0.91786   1.000
    O136    O    0.50163   0.41858   0.36014   1.000
    O137    O    0.00000   0.41872   0.36006   1.000
    O138    O    0.09298   0.45328   0.41945   1.000
    O139    O    0.59209   0.45315   0.41928   1.000
    O140    O    0.06121   0.75840   0.15429   1.000
    O141    O    0.56128   0.75764   0.15389   1.000
    O142    O    0.10711   0.68261   0.06680   1.000
    O143    O    0.60752   0.68178   0.06672   1.000
    O144    O    0.41178   0.57217   0.15729   1.000
    O145    O    0.91191   0.57489   0.15983   1.000
    O146    O    0.47208   0.65643   0.09266   1.000
    O147    O    0.97344   0.65456   0.09087   1.000
    O148    O    0.22497   0.68610   0.00048   1.000
    O149    O    0.72550   0.68669   0.00000   1.000
    O150    O    0.10488   0.87337   0.00781   1.000
    O151    O    0.60478   0.87285   0.00807   1.000
    O152    O    0.22401   0.02572   0.36998   1.000
    O153    O    0.72558   0.02717   0.36990   1.000
    O154    O    0.32533   0.02195   0.40701   1.000
    O155    O    0.82677   0.02198   0.40703   1.000
    O156    O    0.30407   0.69890   0.14970   1.000
    O157    O    0.80288   0.69908   0.14768   1.000
    O158    O    0.37003   0.78008   0.08968   1.000
    O159    O    0.87157   0.77904   0.09110   1.000
    O160    O    0.18161   0.92669   0.10707   1.000
    O161    O    0.67984   0.92553   0.10970   1.000
    O162    O    0.21849   0.80905   0.08299   1.000
    O163    O    0.71771   0.80893   0.08330   1.000
    O164    O    0.25141   0.07774   0.63719   1.000
    O165    O    0.75258   0.07928   0.63969   1.000
    O166    O    0.34325   0.04496   0.58026   1.000
    O167    O    0.84321   0.04540   0.58043   1.000
    O168    O    0.30916   0.74048   0.84536   1.000
    O169    O    0.81053   0.74058   0.84587   1.000
    O170    O    0.35912   0.81470   0.93069   1.000
    O171    O    0.85906   0.81537   0.93194   1.000
    O172    O    0.16203   0.92436   0.84013   1.000
    O173    O    0.66247   0.92359   0.84000   1.000
    O174    O    0.22409   0.84638   0.91043   1.000
    O175    O    0.72446   0.84570   0.91052   1.000
    O176    O    0.47546   0.81201   0.99946   1.000
    O177    O    0.97623   0.81231   0.99935   1.000
    O178    O    0.35486   0.62626   0.99013   1.000
    O179    O    0.85580   0.62597   0.99032   1.000
    O180    O    0.02489   0.97199   0.86680   1.000
    O181    O    0.52511   0.97253   0.86982   1.000
    O182    O    0.42378   0.97558   0.90690   1.000
    O183    O    0.92453   0.97736   0.90756   1.000
    O184    O    0.44533   0.30013   0.64979   1.000
    O185    O    0.94690   0.29990   0.64720   1.000
    O186    O    0.37882   0.21899   0.59077   1.000
    O187    O    0.87775   0.22040   0.59077   1.000
    O188    O    0.06837   0.07235   0.60721   1.000
    O189    O    0.56890   0.07335   0.60943   1.000
    O190    O    0.02940   0.18816   0.57973   1.000
    O191    O    0.53100   0.18998   0.58304   1.000
    O192    O    0.99736   0.91851   0.13943   1.000
    O193    O    0.49846   0.91844   0.13975   1.000
    O194    O    0.40806   0.95319   0.08052   1.000
    O195    O    0.90695   0.95298   0.08003   1.000
    O196    O    0.44016   0.25706   0.34000   1.000
    O197    O    0.93874   0.25884   0.34373   1.000
    O198    O    0.39202   0.18209   0.43242   1.000
    O199    O    0.89236   0.18331   0.43120   1.000
    O200    O    0.08753   0.07444   0.33948   1.000
    O201    O    0.58908   0.07450   0.34020   1.000
    O202    O    0.02643   0.15586   0.40673   1.000
    O203    O    0.52748   0.15337   0.40991   1.000
    O204    O    0.27418   0.18578   0.49903   1.000
    O205    O    0.77468   0.18600   0.49870   1.000
    O206    O    0.39472   0.37185   0.49029   1.000
    O207    O    0.89515   0.37276   0.49001   1.000
    Og208   Og   0.80496   0.02017   0.65400   1.000
    Og209   Og   0.32798   0.82568   0.84737   1.000
    Og210   Og   0.82872   0.82594   0.84803   1.000
    Og211   Og   0.23179   0.89796   0.83767   1.000
    Og212   Og   0.21577   0.48097   0.15290   1.000
    Og213   Og   0.71657   0.48034   0.15215   1.000
    Og214   Og   0.17669   0.28429   0.34009   1.000
    Og215   Og   0.67653   0.28452   0.34055   1.000
    Og216   Og   0.26846   0.37204   0.35482   1.000
    Og217   Og   0.76834   0.37235   0.35476   1.000
    Og218   Og   0.19548   0.51959   0.84547   1.000
    Og219   Og   0.69584   0.52053   0.84521   1.000
    Og220   Og   0.17171   0.32569   0.65103   1.000
    Og221   Og   0.67244   0.32607   0.65136   1.000
    Og222   Og   0.26827   0.39737   0.66120   1.000
    Og223   Og   0.76869   0.39778   0.66165   1.000
    Og224   Og   0.03350   0.51875   0.65263   1.000
    Og225   Og   0.53383   0.51791   0.65291   1.000
    Og226   Og   0.07429   0.71477   0.84010   1.000
    Og227   Og   0.57332   0.71480   0.84019   1.000
    Og228   Og   0.48207   0.62616   0.85556   1.000
    Og229   Og   0.98239   0.62696   0.85506   1.000
    Og230   Og   0.05466   0.47841   0.34589   1.000
    Og231   Og   0.55386   0.47789   0.34558   1.000
    Og232   Og   0.07816   0.67269   0.15164   1.000
    Og233   Og   0.57796   0.67183   0.15116   1.000
    Og234   Og   0.48104   0.60077   0.16192   1.000
    Og235   Og   0.98168   0.60152   0.16248   1.000
    Og236   Og   0.28325   0.98035   0.34662   1.000
    Og237   Og   0.78432   0.98071   0.34662   1.000
    Og238   Og   0.32322   0.78499   0.15837   1.000
    Og239   Og   0.82330   0.78470   0.15811   1.000
    Og240   Og   0.23169   0.87296   0.14368   1.000
    Og241   Og   0.73083   0.87216   0.14485   1.000
    Og242   Og   0.30426   0.01952   0.65303   1.000
    Og243   Og   0.73236   0.89759   0.83798   1.000
    Og244   Og   0.46579   0.01785   0.84672   1.000
    Og245   Og   0.96584   0.01846   0.84557   1.000
    Og246   Og   0.42589   0.21415   0.65903   1.000
    Og247   Og   0.92607   0.21446   0.65759   1.000
    Og248   Og   0.01733   0.12572   0.64244   1.000
    Og249   Og   0.51802   0.12671   0.64475   1.000
    Og250   Og   0.44640   0.97797   0.15411   1.000
    Og251   Og   0.94519   0.97805   0.15350   1.000
    Og252   Og   0.42240   0.17165   0.34850   1.000
    Og253   Og   0.92151   0.17313   0.34659   1.000
    Og254   Og   0.01796   0.10176   0.33613   1.000
    Og255   Og   0.51924   0.10072   0.33790   1.000
loop_
    _geom_bond_atom_site_label_1
    _geom_bond_atom_site_label_2
    _geom_bond_distance
    _geom_bond_site_symmetry_2
    _ccdc_geom_bond_type
    O148   H36       0.98410      .   S
    O148   Zn1       1.99503  1_554   S
    O150   H38       1.03768      .   S
    O150   Zn25      1.98228      .   S
    O151   H39       1.03800      .   S
    O151   Zn26      1.98631      .   S
    Zn15   O158      2.05998      .   S
    Zn15   O146      2.03895      .   S
    Zn15   O134      2.01969  1_554   S
    Zn16   O147      2.03890      .   S
    Zn16   O159      2.05742      .   S
    Zn16   O135      2.01677  1_554   S
    Zn6    O143      2.03245      .   S
    Zn6    O104      1.95676      .   S
    Zn6    O116      1.97540  1_554   S
    Zn5    O142      2.03426      .   S
    Zn5    O103      1.95955      .   S
    Zn5    O115      1.97602  1_554   S
    H37    O149      0.98566      .   S
    O143   C78       1.27700      .   S
    O142   C77       1.27685      .   S
    Zn26   O193      1.96132      .   S
    Zn26   O141      1.96351      .   S
    Zn25   O192      1.96699  1_455   S
    Zn25   O140      1.96120      .   S
    O195   C96       1.27905      .   S
    O195   Zn30      1.97038  1_554   S
    O194   C95       1.27920      .   S
    O194   Zn29      1.97465  1_554   S
    O162   C85       1.28620      .   S
    O162   Zn7       2.00867  1_554   S
    O163   C86       1.28548      .   S
    O163   Zn8       2.01140  1_554   S
    O158   C83       1.26753      .   S
    O104   C53       1.27674      .   S
    O147   C80       1.26871      .   S
    O159   C84       1.26783      .   S
    O103   C52       1.27635      .   S
    O146   C79       1.26820      .   S
    Zn3    O101      1.94459      .   S
    Zn3    O156      2.01919      .   S
    Zn3    O144      1.97616      .   S
    Zn4    O102      1.94830      .   S
    Zn4    O157      2.02144      .   S
    Zn4    O145      1.97352      .   S
    O160   C85       1.26145      .   S
    O161   C86       1.26163      .   S
    O101   C52       1.27167      .   S
    O102   C53       1.27204      .   S
    C78    O141      1.27415      .   S
    C77    O140      1.27470      .   S
    C96    O192      1.27582      .   S
    C95    O193      1.27553      .   S
    C84    O157      1.28208      .   S
    C83    O156      1.28185      .   S
    C79    O144      1.28172      .   S
    C80    O145      1.28154      .   S
    O200   C99       1.28147      .   S
    O200   Zn19      1.97005      .   S
    O196   C97       1.30797      .   S
    O196   Zn9       2.03075      .   S
    O201   C100      1.28138      .   S
    O201   Zn20      1.97385      .   S
    O197   C98       1.27513      .   S
    O197   Zn10      1.96626      .   S
    O105   C54       1.28240      .   S
    O105   Zn19      2.01570      .   S
    O106   C55       1.28140      .   S
    O106   Zn20      2.02015      .   S
    C99    O202      1.26826      .   S
    C100   O203      1.26909      .   S
    C54    O107      1.26743      .   S
    C55    O108      1.26788      .   S
    O137   C75       1.32320      .   S
    O137   Zn10      1.93855  1_455   S
    O136   C76       1.27558      .   S
    O136   Zn9       1.96069      .   S
    C98    O199      1.27662      .   S
    C82    O153      1.27216      .   S
    C82    O155      1.27658      .   S
    C76    O139      1.27908      .   S
    C81    O152      1.27221      .   S
    C81    O154      1.27579      .   S
    C75    O138      1.27959      .   S
    C97    O198      1.27672      .   S
    O153   Zn20      1.94670      .   S
    O152   Zn19      1.94598      .   S
    C57    O110      1.26161      .   S
    C57    O112      1.28553      .   S
    C56    O109      1.26274      .   S
    C56    O111      1.28474      .   S
    O202   Zn32      2.02827      .   S
    O107   Zn32      2.05030      .   S
    O154   Zn21      1.95973      .   S
    O155   Zn22      1.96438      .   S
    O108   Zn0       2.05797      .   S
    O203   Zn0       2.04201      .   S
    O112   Zn24      2.00731      .   S
    O111   Zn23      2.02270      .   S
    Zn10   O207      1.98320      .   S
    Zn10   O120      1.98830  1_655   S
    O139   Zn14      1.97312      .   S
    O138   Zn13      1.97422      .   S
    Zn9    O206      1.97840      .   S
    O199   Zn22      2.04071      .   S
    O198   Zn21      2.03511      .   S
    H45    O205      0.98358      .   S
    H44    O204      0.98441      .   S
    H46    O206      1.04217      .   S
    H47    O207      1.03972      .   S
    Zn22   O167      1.97351      .   S
    Zn21   O204      1.99513      .   S
    Zn21   O166      1.96867      .   S
    Zn32   O190      2.01954      .   S
    Zn0    O191      2.02053      .   S
    O205   Zn18      1.99549      .   S
    O120   H31       0.98520      .   S
    O121   Zn14      1.99260      .   S
    O121   H33       0.98427      .   S
    O122   H34       1.04002      .   S
    O122   Zn17      1.98441      .   S
    O123   H35       1.04159      .   S
    O123   Zn18      1.97965      .   S
    Zn24   O119      2.03012      .   S
    Zn24   O187      2.05588      .   S
    Zn23   O118      2.04039      .   S
    Zn23   O186      2.05264      .   S
    Zn13   O62       2.03509      .   S
    Zn13   O126      1.96045      .   S
    Zn14   O63       2.03546      .   S
    Zn14   O127      1.96396      .   S
    O62    C65       1.27694      .   S
    O63    C66       1.27717      .   S
    Zn17   O164      1.96043      .   S
    Zn17   O60       1.96491      .   S
    O190   C93       1.28469      .   S
    Zn18   O165      1.95864      .   S
    Zn18   O61       1.96625      .   S
    O166   C87       1.27887      .   S
    O167   C48       1.27867      .   S
    O191   C94       1.28531      .   S
    O119   C68       1.26918      .   S
    O118   C67       1.26860      .   S
    O187   C92       1.26785      .   S
    O186   C91       1.26803      .   S
    O126   C69       1.27543      .   S
    O127   C70       1.27590      .   S
    Zn12   O125      1.93882      .   S
    Zn12   O185      2.02057      .   S
    Zn12   O117      1.97844      .   S
    Zn11   O124      1.94525      .   S
    Zn11   O184      2.02465      .   S
    Zn11   O64       1.97307      .   S
    O188   C93       1.26234      .   S
    O189   C94       1.26238      .   S
    O125   C69       1.27390  1_655   S
    O124   C70       1.27246      .   S
    C65    O60       1.27464      .   S
    C66    O61       1.27419      .   S
    C87    O164      1.27577      .   S
    C48    O165      1.27577      .   S
    C92    O185      1.28205      .   S
    C91    O184      1.28120      .   S
    C67    O64       1.28138      .   S
    C68    O117      1.28066      .   S
    O173   C88       1.28215      .   S
    O173   Zn28      1.97021      .   S
    O172   C51       1.28108      .   S
    O172   Zn27      1.97509      .   S
    O168   C49       1.27434      .   S
    O168   Zn1       1.96792      .   S
    O169   C50       1.27367      .   S
    O169   Zn2       1.96661      .   S
    O128   C71       1.28188      .   S
    O128   Zn27      2.01548      .   S
    O129   C72       1.28297      .   S
    O129   Zn28      2.02190      .   S
    C51    O174      1.26883      .   S
    C88    O175      1.26833      .   S
    C71    O130      1.26738      .   S
    C72    O131      1.26718      .   S
    O113   C58       1.27587      .   S
    O113   Zn1       1.96234      .   S
    O114   C59       1.27614      .   S
    O114   Zn2       1.96067      .   S
    C90    O180      1.27262  1_655   S
    C90    O183      1.27565      .   S
    C59    O116      1.27849      .   S
    C58    O115      1.27917      .   S
    C89    O181      1.27258      .   S
    C89    O182      1.27557      .   S
    C49    O170      1.27654      .   S
    O180   Zn27      1.93968      .   S
    C50    O171      1.27742      .   S
    O181   Zn28      1.94284      .   S
    C74    O133      1.26270      .   S
    C74    O135      1.28442      .   S
    C73    O132      1.26315      .   S
    C73    O134      1.28438      .   S
    O131   Zn8       2.05855      .   S
    O182   Zn29      1.96241      .   S
    O130   Zn7       2.05943      .   S
    O183   Zn30      1.96821      .   S
    O174   Zn7       2.03188      .   S
    O175   Zn8       2.04247      .   S
    Zn1    O178      1.97876      .   S
    Zn2    O179      1.97930      .   S
    Zn2    O149      1.99566  1_556   S
    O170   Zn29      2.03851      .   S
    O171   Zn30      2.03522      .   S
    H40    O176      0.98554      .   S
    H41    O177      0.98437      .   S
    H42    O178      1.04396      .   S
    H43    O179      1.04302      .   S
    Zn30   O177      1.99165      .   S
    Zn29   O176      1.99201      .   S
    O120   Zn32      2.14947      .   S
    O120   Zn13      1.98914      .   S
    O121   Zn0       2.15121      .   S
    O121   Zn9       1.99354      .   S
    O122   Zn32      2.10279      .   S
    O122   Zn19      1.98940      .   S
    O123   Zn0       2.10497      .   S
    O123   Zn20      1.98496      .   S
    O148   Zn5       1.99912      .   S
    O148   Zn7       2.15289  1_554   S
    O149   Zn6       1.99740      .   S
    O149   Zn8       2.15369  1_554   S
    O150   Zn7       2.11105  1_554   S
    O150   Zn27      1.99176  1_554   S
    O151   Zn8       2.09985  1_554   S
    O151   Zn28      1.99277  1_554   S
    O176   Zn15      2.14791  1_556   S
    O176   Zn26      1.99347  1_556   S
    O177   Zn16      2.14977  1_556   S
    O177   Zn25      1.99469  1_656   S
    O178   Zn3       1.98515  1_556   S
    O178   Zn15      2.09984  1_556   S
    O179   Zn4       1.98303  1_556   S
    O179   Zn16      2.10399  1_556   S
    O204   Zn17      1.99782      .   S
    O204   Zn23      2.14497      .   S
    O205   Zn22      1.99823      .   S
    O205   Zn24      2.15607      .   S
    O206   Zn11      1.98429      .   S
    O206   Zn23      2.10514      .   S
    O207   Zn12      1.98508      .   S
    O207   Zn24      2.10935      .   S
    C48    Og208     0.49938      .   S
    C49    Og209     0.50242      .   S
    C50    Og210     0.50230      .   S
    C51    Og211     0.49807      .   S
    C52    Og212     0.49752      .   S
    C53    Og213     0.49794      .   S
    C54    Og214     0.50323      .   S
    C55    Og215     0.50398      .   S
    C56    Og216     0.49975      .   S
    C57    Og217     0.49952      .   S
    C58    Og218     0.49962      .   S
    C59    Og219     0.49932      .   S
    C65    Og220     0.50223      .   S
    C66    Og221     0.50229      .   S
    C67    Og222     0.49876      .   S
    C68    Og223     0.49811      .   S
    C69    Og224     0.49756      .   S
    C70    Og225     0.49805      .   S
    C71    Og226     0.50371      .   S
    C72    Og227     0.50405      .   S
    C73    Og228     0.49959      .   S
    C74    Og229     0.49941      .   S
    C75    Og230     0.49959      .   S
    C76    Og231     0.49948      .   S
    C77    Og232     0.50212      .   S
    C78    Og233     0.50218      .   S
    C79    Og234     0.49871      .   S
    C80    Og235     0.49852      .   S
    C81    Og236     0.49743  1_545   S
    C82    Og237     0.49812  1_545   S
    C83    Og238     0.50347      .   S
    C84    Og239     0.50411      .   S
    C85    Og240     0.49949      .   S
    C86    Og241     0.49992      .   S
    C87    Og242     0.49902      .   S
    C88    Og243     0.49840      .   S
    C89    Og244     0.49787  1_565   S
    C90    Og245     0.49801  1_565   S
    C91    Og246     0.50382      .   S
    C92    Og247     0.50380      .   S
    C93    Og248     0.49983      .   S
    C94    Og249     0.49955      .   S
    C95    Og250     0.49948      .   S
    C96    Og251     0.49918      .   S
    C97    Og252     0.50173      .   S
    C98    Og253     0.50214      .   S
    C99    Og254     0.49809      .   S
    C100   Og255     0.49880      .   S
