# CIF file generated by openbabel 2.4.90, see http://openbabel.sf.net
data_I
_chemical_name_common ''
_cell_length_a 21.562
_cell_length_b 17.666
_cell_length_c 17.196
_cell_angle_alpha 89.986
_cell_angle_beta 89.955
_cell_angle_gamma 90.011
_space_group_name_H-M_alt 'P 1'
_space_group_name_Hall 'P 1'
loop_
    _symmetry_equiv_pos_as_xyz
    x,y,z
loop_
    _atom_site_label
    _atom_site_type_symbol
    _atom_site_fract_x
    _atom_site_fract_y
    _atom_site_fract_z
    _atom_site_occupancy
    H0      H    0.00530   0.29486   0.54915   1.000
    H1      H    0.50596   0.29513   0.54974   1.000
    H2      H    0.11408   0.09426   0.54177   1.000
    H3      H    0.61474   0.09442   0.54419   1.000
    H4      H    0.24373   0.70236   0.04988   1.000
    H5      H    0.74418   0.70301   0.04954   1.000
    H6      H    0.13513   0.90511   0.04154   1.000
    H7      H    0.63449   0.90440   0.04276   1.000
    H8      H    0.49443   0.79562   0.95010   1.000
    H9      H    0.99503   0.79549   0.95012   1.000
    H10     H    0.38504   0.59495   0.95520   1.000
    H11     H    0.88601   0.59480   0.95540   1.000
    H12     H    0.25547   0.20224   0.44964   1.000
    H13     H    0.75592   0.20234   0.44935   1.000
    H14     H    0.36472   0.40328   0.45546   1.000
    H15     H    0.86509   0.40431   0.45562   1.000
    C16     C    0.80192   0.03989   0.63355   1.000
    C17     C    0.33032   0.80455   0.86670   1.000
    C18     C    0.83106   0.80484   0.86740   1.000
    C19     C    0.21394   0.89228   0.85512   1.000
    C20     C    0.21962   0.50134   0.13351   1.000
    C21     C    0.72061   0.50063   0.13269   1.000
    C22     C    0.17122   0.26343   0.35881   1.000
    C23     C    0.67109   0.26370   0.35941   1.000
    C24     C    0.28324   0.37051   0.37714   1.000
    C25     C    0.78314   0.37092   0.37704   1.000
    C26     C    0.19849   0.53925   0.86601   1.000
    C27     C    0.69884   0.54026   0.86566   1.000
    O28     O    0.18932   0.24014   0.65353   1.000
    O29     O    0.69069   0.24074   0.65376   1.000
    O30     O    0.14161   0.31533   0.56700   1.000
    O31     O    0.64230   0.31535   0.56736   1.000
    O32     O    0.33765   0.42532   0.65750   1.000
    C33     C    0.16932   0.30461   0.63167   1.000
    C34     C    0.67015   0.30496   0.63201   1.000
    C35     C    0.28620   0.39155   0.64386   1.000
    C36     C    0.78657   0.39194   0.64430   1.000
    C37     C    0.02928   0.49846   0.63328   1.000
    C38     C    0.52986   0.49752   0.63355   1.000
    C39     C    0.07975   0.73570   0.85877   1.000
    C40     C    0.57873   0.73577   0.85887   1.000
    C41     C    0.46739   0.62751   0.87801   1.000
    C42     C    0.96763   0.62837   0.87741   1.000
    C43     C    0.05171   0.45860   0.36630   1.000
    C44     C    0.55084   0.45823   0.36612   1.000
    C45     C    0.08049   0.69368   0.13217   1.000
    C46     C    0.58043   0.69289   0.13179   1.000
    C47     C    0.46307   0.60680   0.14476   1.000
    C48     C    0.96375   0.60745   0.14524   1.000
    C49     C    0.27921   0.00055   0.36612   1.000
    C50     C    0.78047   0.00104   0.36610   1.000
    C51     C    0.32868   0.76422   0.13953   1.000
    C52     C    0.82878   0.76390   0.13926   1.000
    C53     C    0.21694   0.87151   0.12135   1.000
    C54     C    0.71586   0.87071   0.12271   1.000
    C55     C    0.30125   0.03911   0.63247   1.000
    C56     C    0.71447   0.89174   0.85533   1.000
    C57     C    0.46984   0.99752   0.86612   1.000
    C58     C    0.96993   0.99817   0.86500   1.000
    C59     C    0.42041   0.23495   0.64021   1.000
    C60     C    0.92063   0.23531   0.63880   1.000
    C61     C    0.03205   0.12699   0.62001   1.000
    C62     C    0.53288   0.12822   0.62251   1.000
    C63     C    0.44937   0.95827   0.13362   1.000
    C64     C    0.94822   0.95824   0.13315   1.000
    C65     C    0.41996   0.19270   0.36784   1.000
    C66     C    0.91918   0.19422   0.36594   1.000
    C67     C    0.03590   0.10776   0.35329   1.000
    C68     C    0.53717   0.10668   0.35516   1.000
    O69     O    0.27441   0.52775   0.13001   1.000
    O70     O    0.77540   0.52721   0.13006   1.000
    O71     O    0.17332   0.52205   0.09249   1.000
    O72     O    0.67478   0.52103   0.09065   1.000
    O73     O    0.19704   0.19862   0.34987   1.000
    O74     O    0.69646   0.19875   0.35002   1.000
    O75     O    0.12846   0.27851   0.40699   1.000
    O76     O    0.62912   0.27901   0.40863   1.000
    O77     O    0.31984   0.42491   0.38991   1.000
    O78     O    0.81909   0.42578   0.39022   1.000
    O79     O    0.28037   0.30920   0.41717   1.000
    O80     O    0.78106   0.30918   0.41653   1.000
    O81     O    0.24786   0.57865   0.86000   1.000
    O82     O    0.74874   0.57878   0.86046   1.000
    O83     O    0.15708   0.54463   0.91903   1.000
    O84     O    0.65691   0.54662   0.91786   1.000
    O85     O    0.83868   0.42348   0.65932   1.000
    O86     O    0.27687   0.34359   0.59023   1.000
    O87     O    0.77620   0.34606   0.58903   1.000
    O88     O    0.02414   0.31202   0.50000   1.000
    O89     O    0.52465   0.31204   0.50047   1.000
    O90     O    0.14431   0.12595   0.50765   1.000
    O91     O    0.64518   0.12558   0.50969   1.000
    O92     O    0.47473   0.47205   0.62999   1.000
    O93     O    0.97372   0.47429   0.62900   1.000
    O94     O    0.07513   0.47576   0.59260   1.000
    O95     O    0.57604   0.47582   0.59283   1.000
    O96     O    0.05332   0.80011   0.84984   1.000
    O97     O    0.55227   0.80024   0.85003   1.000
    O98     O    0.12261   0.72124   0.90692   1.000
    O99     O    0.62174   0.72142   0.90683   1.000
    O100    O    0.42975   0.57388   0.88961   1.000
    O101    O    0.93099   0.57394   0.88990   1.000
    O102    O    0.47161   0.68753   0.91981   1.000
    O103    O    0.97051   0.68938   0.91786   1.000
    O104    O    0.50163   0.41858   0.36014   1.000
    O105    O    0.00000   0.41872   0.36006   1.000
    O106    O    0.09298   0.45328   0.41945   1.000
    O107    O    0.59209   0.45315   0.41928   1.000
    O108    O    0.06121   0.75840   0.15429   1.000
    O109    O    0.56128   0.75764   0.15389   1.000
    O110    O    0.10711   0.68261   0.06680   1.000
    O111    O    0.60752   0.68178   0.06672   1.000
    O112    O    0.41178   0.57217   0.15729   1.000
    O113    O    0.91191   0.57489   0.15983   1.000
    O114    O    0.47208   0.65643   0.09266   1.000
    O115    O    0.97344   0.65456   0.09087   1.000
    O116    O    0.22497   0.68610   0.00048   1.000
    O117    O    0.72550   0.68669   0.00000   1.000
    O118    O    0.10488   0.87337   0.00781   1.000
    O119    O    0.60478   0.87285   0.00807   1.000
    O120    O    0.22401   0.02572   0.36998   1.000
    O121    O    0.72558   0.02717   0.36990   1.000
    O122    O    0.32533   0.02195   0.40701   1.000
    O123    O    0.82677   0.02198   0.40703   1.000
    O124    O    0.30407   0.69890   0.14970   1.000
    O125    O    0.80288   0.69908   0.14768   1.000
    O126    O    0.37003   0.78008   0.08968   1.000
    O127    O    0.87157   0.77904   0.09110   1.000
    O128    O    0.18161   0.92669   0.10707   1.000
    O129    O    0.67984   0.92553   0.10970   1.000
    O130    O    0.21849   0.80905   0.08299   1.000
    O131    O    0.71771   0.80893   0.08330   1.000
    O132    O    0.25141   0.07774   0.63719   1.000
    O133    O    0.75258   0.07928   0.63969   1.000
    O134    O    0.34325   0.04496   0.58026   1.000
    O135    O    0.84321   0.04540   0.58043   1.000
    O136    O    0.30916   0.74048   0.84536   1.000
    O137    O    0.81053   0.74058   0.84587   1.000
    O138    O    0.35912   0.81470   0.93069   1.000
    O139    O    0.85906   0.81537   0.93194   1.000
    O140    O    0.16203   0.92436   0.84013   1.000
    O141    O    0.66247   0.92359   0.84000   1.000
    O142    O    0.22409   0.84638   0.91043   1.000
    O143    O    0.72446   0.84570   0.91052   1.000
    O144    O    0.47546   0.81201   0.99946   1.000
    O145    O    0.97623   0.81231   0.99935   1.000
    O146    O    0.35486   0.62626   0.99013   1.000
    O147    O    0.85580   0.62597   0.99032   1.000
    O148    O    0.02489   0.97199   0.86680   1.000
    O149    O    0.52511   0.97253   0.86982   1.000
    O150    O    0.42378   0.97558   0.90690   1.000
    O151    O    0.92453   0.97736   0.90756   1.000
    O152    O    0.44533   0.30013   0.64979   1.000
    O153    O    0.94690   0.29990   0.64720   1.000
    O154    O    0.37882   0.21899   0.59077   1.000
    O155    O    0.87775   0.22040   0.59077   1.000
    O156    O    0.06837   0.07235   0.60721   1.000
    O157    O    0.56890   0.07335   0.60943   1.000
    O158    O    0.02940   0.18816   0.57973   1.000
    O159    O    0.53100   0.18998   0.58304   1.000
    O160    O    0.99736   0.91851   0.13943   1.000
    O161    O    0.49846   0.91844   0.13975   1.000
    O162    O    0.40806   0.95319   0.08052   1.000
    O163    O    0.90695   0.95298   0.08003   1.000
    O164    O    0.44016   0.25706   0.34000   1.000
    O165    O    0.93874   0.25884   0.34373   1.000
    O166    O    0.39202   0.18209   0.43242   1.000
    O167    O    0.89236   0.18331   0.43120   1.000
    O168    O    0.08753   0.07444   0.33948   1.000
    O169    O    0.58908   0.07450   0.34020   1.000
    O170    O    0.02643   0.15586   0.40673   1.000
    O171    O    0.52748   0.15337   0.40991   1.000
    O172    O    0.27418   0.18578   0.49903   1.000
    O173    O    0.77468   0.18600   0.49870   1.000
    O174    O    0.39472   0.37185   0.49029   1.000
    O175    O    0.89515   0.37276   0.49001   1.000
loop_
    _geom_bond_atom_site_label_1
    _geom_bond_atom_site_label_2
    _geom_bond_distance
    _geom_bond_site_symmetry_2
    _ccdc_geom_bond_type
    O116   H4        0.98410      .   S
    O118   H6        1.03768      .   S
    O119   H7        1.03800      .   S
    H5     O117      0.98566      .   S
    O111   C46       1.27700      .   S
    O110   C45       1.27685      .   S
    O163   C64       1.27905      .   S
    O162   C63       1.27920      .   S
    O130   C53       1.28620      .   S
    O131   C54       1.28548      .   S
    O126   C51       1.26753      .   S
    O72    C21       1.27674      .   S
    O115   C48       1.26871      .   S
    O127   C52       1.26783      .   S
    O71    C20       1.27635      .   S
    O114   C47       1.26820      .   S
    O128   C53       1.26145      .   S
    O129   C54       1.26163      .   S
    O69    C20       1.27167      .   S
    O70    C21       1.27204      .   S
    C46    O109      1.27415      .   S
    C45    O108      1.27470      .   S
    C64    O160      1.27582      .   S
    C63    O161      1.27553      .   S
    C52    O125      1.28208      .   S
    C51    O124      1.28185      .   S
    C47    O112      1.28172      .   S
    C48    O113      1.28154      .   S
    O168   C67       1.28147      .   S
    O164   C65       1.30797      .   S
    O169   C68       1.28138      .   S
    O165   C66       1.27513      .   S
    O73    C22       1.28240      .   S
    O74    C23       1.28140      .   S
    C67    O170      1.26826      .   S
    C68    O171      1.26909      .   S
    C22    O75       1.26743      .   S
    C23    O76       1.26788      .   S
    O105   C43       1.32320      .   S
    O104   C44       1.27558      .   S
    C66    O167      1.27662      .   S
    C50    O121      1.27216      .   S
    C50    O123      1.27658      .   S
    C44    O107      1.27908      .   S
    C49    O120      1.27221      .   S
    C49    O122      1.27579      .   S
    C43    O106      1.27959      .   S
    C65    O166      1.27672      .   S
    C25    O78       1.26161      .   S
    C25    O80       1.28553      .   S
    C24    O77       1.26274      .   S
    C24    O79       1.28474      .   S
    H13    O173      0.98358      .   S
    H12    O172      0.98441      .   S
    H14    O174      1.04217      .   S
    H15    O175      1.03972      .   S
    O88    H0        0.98520      .   S
    O89    H1        0.98427      .   S
    O90    H2        1.04002      .   S
    O91    H3        1.04159      .   S
    O30    C33       1.27694      .   S
    O31    C34       1.27717      .   S
    O158   C61       1.28469      .   S
    O134   C55       1.27887      .   S
    O135   C16       1.27867      .   S
    O159   C62       1.28531      .   S
    O87    C36       1.26918      .   S
    O86    C35       1.26860      .   S
    O155   C60       1.26785      .   S
    O154   C59       1.26803      .   S
    O94    C37       1.27543      .   S
    O95    C38       1.27590      .   S
    O156   C61       1.26234      .   S
    O157   C62       1.26238      .   S
    O93    C37       1.27390  1_655   S
    O92    C38       1.27246      .   S
    C33    O28       1.27464      .   S
    C34    O29       1.27419      .   S
    C55    O132      1.27577      .   S
    C16    O133      1.27577      .   S
    C60    O153      1.28205      .   S
    C59    O152      1.28120      .   S
    C35    O32       1.28138      .   S
    C36    O85       1.28066      .   S
    O141   C56       1.28215      .   S
    O140   C19       1.28108      .   S
    O136   C17       1.27434      .   S
    O137   C18       1.27367      .   S
    O96    C39       1.28188      .   S
    O97    C40       1.28297      .   S
    C19    O142      1.26883      .   S
    C56    O143      1.26833      .   S
    C39    O98       1.26738      .   S
    C40    O99       1.26718      .   S
    O81    C26       1.27587      .   S
    O82    C27       1.27614      .   S
    C58    O148      1.27262  1_655   S
    C58    O151      1.27565      .   S
    C27    O84       1.27849      .   S
    C26    O83       1.27917      .   S
    C57    O149      1.27258      .   S
    C57    O150      1.27557      .   S
    C17    O138      1.27654      .   S
    C18    O139      1.27742      .   S
    C42    O101      1.26270      .   S
    C42    O103      1.28442      .   S
    C41    O100      1.26315      .   S
    C41    O102      1.28438      .   S
    H8     O144      0.98554      .   S
    H9     O145      0.98437      .   S
    H10    O146      1.04396      .   S
    H11    O147      1.04302      .   S
