# CIF file generated by openbabel 2.4.90, see http://openbabel.sf.net
data_I
_chemical_name_common ''
_cell_length_a 21.562
_cell_length_b 17.666
_cell_length_c 17.196
_cell_angle_alpha 89.986
_cell_angle_beta 89.955
_cell_angle_gamma 90.011
_space_group_name_H-M_alt 'P 1'
_space_group_name_Hall 'P 1'
loop_
    _symmetry_equiv_pos_as_xyz
    x,y,z
loop_
    _atom_site_label
    _atom_site_type_symbol
    _atom_site_fract_x
    _atom_site_fract_y
    _atom_site_fract_z
    _atom_site_occupancy
    Zr0     Zr   0.08008   0.21251   0.48413   1.000
    Zr1     Zr   0.58114   0.21260   0.48648   1.000
    Zr2     Zr   0.28778   0.65982   0.91964   1.000
    Zr3     Zr   0.78879   0.65990   0.91986   1.000
    Zr4     Zr   0.33615   0.60276   0.10058   1.000
    Zr5     Zr   0.83693   0.60279   0.10067   1.000
    Zr6     Zr   0.16275   0.60361   0.01639   1.000
    Zr7     Zr   0.66387   0.60374   0.01621   1.000
    Zr8     Zr   0.17018   0.78695   0.98578   1.000
    Zr9     Zr   0.66945   0.78665   0.98590   1.000
    Zr10    Zr   0.46164   0.33755   0.41985   1.000
    Zr11    Zr   0.96176   0.33766   0.41908   1.000
    Zr12    Zr   0.41345   0.39658   0.60035   1.000
    Zr13    Zr   0.91432   0.39685   0.60015   1.000
    Zr14    Zr   0.08584   0.39418   0.51650   1.000
    Zr15    Zr   0.58669   0.39416   0.51650   1.000
    Zr16    Zr   0.41898   0.71277   0.01349   1.000
    Zr17    Zr   0.91995   0.71280   0.01359   1.000
    Zr18    Zr   0.21081   0.15960   0.57948   1.000
    Zr19    Zr   0.71219   0.15982   0.58003   1.000
    Zr20    Zr   0.16309   0.10264   0.39693   1.000
    Zr21    Zr   0.66410   0.10267   0.39919   1.000
    Zr22    Zr   0.33618   0.10338   0.48317   1.000
    Zr23    Zr   0.83727   0.10400   0.48300   1.000
    Zr24    Zr   0.33054   0.28486   0.51332   1.000
    Zr25    Zr   0.82975   0.28687   0.51330   1.000
    Zr26    Zr   0.03919   0.83822   0.08000   1.000
    Zr27    Zr   0.53860   0.83762   0.07989   1.000
    Zr28    Zr   0.08574   0.89671   0.89708   1.000
    Zr29    Zr   0.58640   0.89646   0.89713   1.000
    Zr30    Zr   0.41340   0.89403   0.98333   1.000
    Zr31    Zr   0.91433   0.89443   0.98295   1.000
    N32     N    0.32635   0.92707   0.74127   1.000
    N33     N    0.67388   0.42760   0.75738   1.000
    N34     N    0.06132   0.61334   0.73542   1.000
    N35     N    0.31044   0.88587   0.26348   1.000
    N36     N    0.56075   0.61315   0.73557   1.000
    N37     N    0.57601   0.57049   0.25734   1.000
    N38     N    0.07653   0.57157   0.25810   1.000
    N39     N    0.68931   0.38563   0.23527   1.000
    N40     N    0.82708   0.92731   0.74190   1.000
    N41     N    0.93869   0.11333   0.76265   1.000
    N42     N    0.42435   0.07059   0.24224   1.000
    N43     N    0.43858   0.11276   0.76385   1.000
    N44     N    0.92310   0.07137   0.24083   1.000
    N45     N    0.17341   0.42701   0.75720   1.000
    N46     N    0.18916   0.38584   0.23563   1.000
    N47     N    0.81092   0.88591   0.26322   1.000
    C48     C    0.29449   0.36821   0.39474   1.000
    O49     O    0.25980   0.37376   0.34219   1.000
    O50     O    0.29997   0.33262   0.42999   1.000
    C51     C    0.51530   0.30358   0.52511   1.000
    O52     O    0.53549   0.32834   0.51680   1.000
    O53     O    0.53410   0.28295   0.50929   1.000
    O54     O    0.50422   0.31419   0.49263   1.000
    C55     C    0.62996   0.11000   0.52694   1.000
    O56     O    0.65432   0.12635   0.53590   1.000
    O57     O    0.62156   0.13954   0.51251   1.000
    O58     O    0.64230   0.11206   0.49069   1.000
    C59     C    0.66772   0.28702   0.61771   1.000
    O60     O    0.68458   0.24365   0.61730   1.000
    O61     O    0.64111   0.32088   0.57982   1.000
    O62     O    0.67072   0.33456   0.66346   1.000
    C63     C    0.41738   0.21061   0.38009   1.000
    O64     O    0.43414   0.25396   0.38001   1.000
    O65     O    0.39074   0.17667   0.41894   1.000
    O66     O    0.42068   0.16323   0.33531   1.000
    C67     C    0.80048   0.38716   0.63088   1.000
    O68     O    0.83849   0.39866   0.63031   1.000
    O69     O    0.75865   0.40066   0.67237   1.000
    O70     O    0.80173   0.35181   0.59102   1.000
    C71     C    0.79443   0.36863   0.39460   1.000
    O72     O    0.75978   0.37399   0.34202   1.000
    O73     O    0.79992   0.33333   0.42976   1.000
    C74     C    0.79924   0.05486   0.61789   1.000
    O75     O    0.76581   0.08720   0.61388   1.000
    O76     O    0.80801   0.01183   0.66048   1.000
    O77     O    0.81974   0.06478   0.57480   1.000
    C78     C    0.91676   0.21212   0.38029   1.000
    O79     O    0.93351   0.25519   0.38085   1.000
    O80     O    0.89079   0.17789   0.41870   1.000
    O81     O    0.91982   0.16455   0.33458   1.000
    C82     C    0.54819   0.44332   0.38185   1.000
    O83     O    0.55694   0.48621   0.33909   1.000
    O84     O    0.56879   0.43349   0.42487   1.000
    O85     O    0.51491   0.41069   0.38592   1.000
    C86     C    0.77761   0.01673   0.38101   1.000
    O87     O    0.80481   0.03986   0.41301   1.000
    O88     O    0.73622   0.04083   0.38278   1.000
    O89     O    0.78809   0.97248   0.34053   1.000
    C90     C    0.01472   0.30344   0.52458   1.000
    O91     O    0.03342   0.28286   0.50832   1.000
    O92     O    0.03486   0.32827   0.51641   1.000
    O93     O    0.00384   0.31414   0.49206   1.000
    C94     C    0.29864   0.05394   0.61664   1.000
    O95     O    0.30735   0.01117   0.65947   1.000
    O96     O    0.26487   0.08630   0.61249   1.000
    O97     O    0.31918   0.06405   0.57418   1.000
    C98     C    0.52688   0.48180   0.61879   1.000
    O99     O    0.55412   0.45839   0.58673   1.000
    O100    O    0.48549   0.45806   0.61698   1.000
    O101    O    0.53758   0.52621   0.65894   1.000
    C102    C    0.16675   0.28669   0.61740   1.000
    O103    O    0.18341   0.24328   0.61695   1.000
    O104    O    0.16996   0.33416   0.66318   1.000
    O105    O    0.14024   0.32072   0.57958   1.000
    C106    C    0.66556   0.24716   0.37269   1.000
    O107    O    0.67492   0.29372   0.32794   1.000
    O108    O    0.63534   0.24648   0.41012   1.000
    O109    O    0.67292   0.19893   0.37365   1.000
    C110    C    0.16557   0.24685   0.37189   1.000
    O111    O    0.17493   0.29357   0.32754   1.000
    O112    O    0.13492   0.24618   0.40873   1.000
    O113    O    0.17282   0.19874   0.37265   1.000
    C114    C    0.30024   0.38682   0.63053   1.000
    O115    O    0.30197   0.35052   0.59115   1.000
    O116    O    0.25830   0.40023   0.67203   1.000
    O117    O    0.33789   0.39888   0.62973   1.000
    C118    C    0.88012   0.38854   0.47282   1.000
    O119    O    0.90429   0.37187   0.46368   1.000
    O120    O    0.89243   0.38667   0.50895   1.000
    O121    O    0.87129   0.35918   0.48724   1.000
    C122    C    0.04327   0.12917   0.60232   1.000
    O123    O    0.04901   0.16475   0.56712   1.000
    O124    O    0.00880   0.12419   0.65524   1.000
    C125    C    0.54426   0.13052   0.60499   1.000
    O126    O    0.55016   0.16590   0.56988   1.000
    O127    O    0.50942   0.12494   0.65743   1.000
    C128    C    0.41485   0.25136   0.62692   1.000
    O129    O    0.38477   0.25164   0.58948   1.000
    O130    O    0.42423   0.20481   0.67154   1.000
    O131    O    0.42212   0.29986   0.62600   1.000
    C132    C    0.26483   0.19401   0.47434   1.000
    O133    O    0.28500   0.16929   0.48272   1.000
    O134    O    0.25366   0.18335   0.50680   1.000
    O135    O    0.28359   0.21466   0.49026   1.000
    C136    C    0.76530   0.19417   0.47403   1.000
    O137    O    0.75437   0.18354   0.50670   1.000
    O138    O    0.78564   0.16959   0.48244   1.000
    O139    O    0.78376   0.21530   0.49001   1.000
    C140    C    0.91509   0.25187   0.62559   1.000
    O141    O    0.92442   0.20527   0.67020   1.000
    O142    O    0.92285   0.30012   0.62463   1.000
    O143    O    0.88442   0.25275   0.58881   1.000
    C144    C    0.37972   0.38757   0.47287   1.000
    O145    O    0.40395   0.37113   0.46397   1.000
    O146    O    0.37117   0.35796   0.48734   1.000
    O147    O    0.39190   0.38589   0.50910   1.000
    C148    C    0.55124   0.11152   0.36842   1.000
    O149    O    0.55278   0.14725   0.40831   1.000
    O150    O    0.58892   0.10005   0.36906   1.000
    O151    O    0.50928   0.09784   0.32709   1.000
    C152    C    0.02604   0.48284   0.61829   1.000
    O153    O    0.98503   0.45920   0.61643   1.000
    O154    O    0.03725   0.52698   0.65858   1.000
    O155    O    0.05327   0.45890   0.58642   1.000
    C156    C    0.04823   0.44353   0.38194   1.000
    O157    O    0.01456   0.41086   0.38575   1.000
    O158    O    0.06882   0.43363   0.42496   1.000
    O159    O    0.05728   0.48674   0.33942   1.000
    C160    C    0.12919   0.11010   0.52471   1.000
    O161    O    0.15338   0.12644   0.53414   1.000
    O162    O    0.12069   0.13967   0.51030   1.000
    O163    O    0.14145   0.11220   0.48850   1.000
    C164    C    0.04995   0.11268   0.36650   1.000
    O165    O    0.05160   0.14843   0.40597   1.000
    O166    O    0.00800   0.09888   0.32534   1.000
    O167    O    0.08763   0.10061   0.36735   1.000
    C168    C    0.27618   0.01608   0.38104   1.000
    O169    O    0.23487   0.04013   0.38225   1.000
    O170    O    0.28702   0.97207   0.34061   1.000
    O171    O    0.30347   0.03937   0.41306   1.000
    C172    C    0.73484   0.69485   0.02477   1.000
    O173    O    0.74599   0.68408   0.99235   1.000
    O174    O    0.71476   0.67004   0.01644   1.000
    O175    O    0.71616   0.71576   0.00886   1.000
    C176    C    0.23435   0.69423   0.02518   1.000
    O177    O    0.24536   0.68359   0.99262   1.000
    O178    O    0.21410   0.66954   0.01681   1.000
    O179    O    0.21596   0.71538   0.00915   1.000
    C180    C    0.70046   0.88701   0.86862   1.000
    O181    O    0.74233   0.90046   0.82711   1.000
    O182    O    0.69871   0.85159   0.90841   1.000
    O183    O    0.66245   0.89852   0.86859   1.000
    C184    C    0.72360   0.51629   0.11780   1.000
    O185    O    0.76488   0.54064   0.11658   1.000
    O186    O    0.71276   0.47210   0.15819   1.000
    O187    O    0.69646   0.53934   0.08562   1.000
    C188    C    0.45196   0.94330   0.11796   1.000
    O189    O    0.48525   0.91066   0.11389   1.000
    O190    O    0.43135   0.93346   0.07494   1.000
    O191    O    0.44330   0.98625   0.16063   1.000
    C192    C    0.33426   0.74773   0.12630   1.000
    O193    O    0.36438   0.74708   0.08894   1.000
    O194    O    0.32719   0.69928   0.12572   1.000
    O195    O    0.32486   0.79418   0.17097   1.000
    C196    C    0.95084   0.94324   0.11754   1.000
    O197    O    0.98456   0.91081   0.11363   1.000
    O198    O    0.94212   0.98645   0.15990   1.000
    O199    O    0.93074   0.93347   0.07451   1.000
    C200    C    0.44898   0.61180   0.13157   1.000
    O201    O    0.44725   0.64820   0.09232   1.000
    O202    O    0.41147   0.59963   0.13025   1.000
    O203    O    0.49100   0.59796   0.17274   1.000
    C204    C    0.94970   0.61230   0.13198   1.000
    O205    O    0.94820   0.64799   0.09211   1.000
    O206    O    0.99164   0.59868   0.17329   1.000
    O207    O    0.91206   0.60057   0.13112   1.000
    C208    C    0.98563   0.80390   0.97474   1.000
    O209    O    0.96546   0.82863   0.98294   1.000
    O210    O    0.96686   0.78323   0.99060   1.000
    O211    O    0.99667   0.81458   0.00721   1.000
    C212    C    0.36995   0.61060   0.97267   1.000
    O213    O    0.34564   0.62682   0.96378   1.000
    O214    O    0.35773   0.61255   0.00901   1.000
    O215    O    0.37844   0.64006   0.98724   1.000
    C216    C    0.58424   0.75247   0.87191   1.000
    O217    O    0.57496   0.70560   0.82756   1.000
    O218    O    0.57679   0.80041   0.87275   1.000
    O219    O    0.61492   0.75325   0.90914   1.000
    C220    C    0.87090   0.61038   0.97286   1.000
    O221    O    0.84660   0.62666   0.96398   1.000
    O222    O    0.85863   0.61238   0.00918   1.000
    O223    O    0.87939   0.63989   0.98741   1.000
    C224    C    0.70447   0.86839   0.10524   1.000
    O225    O    0.73954   0.87389   0.15740   1.000
    O226    O    0.69903   0.83309   0.06992   1.000
    C227    C    0.47291   0.98188   0.88095   1.000
    O228    O    0.46204   0.02613   0.84069   1.000
    O229    O    0.44575   0.95834   0.91303   1.000
    O230    O    0.51434   0.95818   0.88221   1.000
    C231    C    0.22245   0.51705   0.11867   1.000
    O232    O    0.21198   0.47268   0.15889   1.000
    O233    O    0.19524   0.53994   0.08656   1.000
    O234    O    0.26386   0.54115   0.11698   1.000
    C235    C    0.08294   0.71157   0.11775   1.000
    O236    O    0.07985   0.66422   0.16375   1.000
    O237    O    0.06657   0.75494   0.11745   1.000
    O238    O    0.10893   0.67734   0.07967   1.000
    C239    C    0.58308   0.71077   0.11747   1.000
    O240    O    0.60938   0.67677   0.07947   1.000
    O241    O    0.57972   0.66333   0.16328   1.000
    O242    O    0.56651   0.75420   0.11718   1.000
    C243    C    0.83355   0.78693   0.88174   1.000
    O244    O    0.86012   0.82092   0.91959   1.000
    O245    O    0.81660   0.74359   0.88230   1.000
    O246    O    0.83043   0.83441   0.83593   1.000
    C247    C    0.20002   0.88768   0.86856   1.000
    O248    O    0.16195   0.89911   0.86858   1.000
    O249    O    0.19858   0.85217   0.90833   1.000
    O250    O    0.24178   0.90081   0.82683   1.000
    C251    C    0.20568   0.86908   0.10380   1.000
    O252    O    0.24022   0.87443   0.15648   1.000
    O253    O    0.20001   0.83354   0.06909   1.000
    C254    C    0.70150   0.55522   0.88133   1.000
    O255    O    0.69280   0.51218   0.83876   1.000
    O256    O    0.73513   0.58728   0.88574   1.000
    O257    O    0.68094   0.56520   0.92418   1.000
    C258    C    0.20114   0.55418   0.88168   1.000
    O259    O    0.23448   0.58670   0.88575   1.000
    O260    O    0.18053   0.56415   0.92470   1.000
    O261    O    0.19242   0.51128   0.83894   1.000
    C262    C    0.45625   0.62964   0.89581   1.000
    O263    O    0.45077   0.66489   0.93123   1.000
    O264    O    0.49067   0.62448   0.84288   1.000
    C265    C    0.33287   0.78658   0.88092   1.000
    O266    O    0.32972   0.83412   0.83520   1.000
    O267    O    0.31567   0.74336   0.88171   1.000
    O268    O    0.35956   0.82047   0.91896   1.000
    C269    C    0.08523   0.75235   0.87184   1.000
    O270    O    0.07738   0.80038   0.87265   1.000
    O271    O    0.07583   0.70559   0.82747   1.000
    O272    O    0.11581   0.75322   0.90910   1.000
    C273    C    0.12001   0.88924   0.02468   1.000
    O274    O    0.09602   0.87252   0.03429   1.000
    O275    O    0.12877   0.85970   0.01074   1.000
    O276    O    0.10766   0.88714   0.98856   1.000
    C277    C    0.48495   0.80382   0.97478   1.000
    O278    O    0.46469   0.82842   0.98309   1.000
    O279    O    0.46608   0.78310   0.99063   1.000
    O280    O    0.49599   0.81432   0.00723   1.000
    C281    C    0.83441   0.74734   0.12601   1.000
    O282    O    0.86509   0.74663   0.08918   1.000
    O283    O    0.82507   0.79392   0.17070   1.000
    O284    O    0.82716   0.69914   0.12509   1.000
    C285    C    0.97312   0.98251   0.87979   1.000
    O286    O    0.01421   0.95843   0.88086   1.000
    O287    O    0.96218   0.02674   0.83952   1.000
    O288    O    0.94627   0.95920   0.91252   1.000
    C289    C    0.61963   0.88863   0.02542   1.000
    O290    O    0.59566   0.87193   0.03470   1.000
    O291    O    0.62837   0.85919   0.01120   1.000
    O292    O    0.60761   0.88664   0.98901   1.000
    C293    C    0.95638   0.63056   0.89506   1.000
    O294    O    0.99096   0.62518   0.84235   1.000
    O295    O    0.95080   0.66583   0.93039   1.000
loop_
    _geom_bond_atom_site_label_1
    _geom_bond_atom_site_label_2
    _geom_bond_distance
    _geom_bond_site_symmetry_2
    _ccdc_geom_bond_type
    C48    O49       1.17747      .   S
    N46    O49       2.39326      .   S
    C48    O50       0.88131      .   S
    Zr24   O50       1.78900      .   S
    C51    O52       0.63318      .   S
    Zr15   O52       1.60330      .   S
    C51    O53       0.60910      .   S
    Zr1    O53       1.65145      .   S
    C51    O54       0.63574      .   S
    Zr10   O54       1.60677      .   S
    C55    O56       0.61902      .   S
    Zr19   O56       1.57594      .   S
    C55    O57       0.60565      .   S
    Zr1    O57       1.62062      .   S
    C55    O58       0.67856      .   S
    Zr21   O58       1.65022      .   S
    C59    O60       0.84814      .   S
    Zr19   O60       1.72005      .   S
    C59    O61       1.05463      .   S
    Zr15   O61       2.05910      .   S
    C59    O62       1.15286      .   S
    N33    O62       2.30563      .   S
    C63    O64       0.84667      .   S
    Zr10   O64       1.73284      .   S
    C63    O65       1.06531      .   S
    Zr22   O65       2.06808      .   S
    C63    O66       1.13962      .   S
    N42    O66       2.29071      .   S
    C67    O68       0.84436      .   S
    Zr13   O68       1.71517      .   S
    C67    O69       1.17412      .   S
    N33    O69       2.38770      .   S
    C67    O70       0.92770      .   S
    Zr25   O70       1.86210      .   S
    C71    O72       1.17717      .   S
    N39    O72       2.39269      .   S
    C71    O73       0.87659      .   S
    Zr25   O73       1.77545      .   S
    C74    O75       0.92250      .   S
    Zr19   O75       1.82273      .   S
    C74    O76       1.07229      .   S
    N40    O76       2.08787  1_565   S
    C74    O77       0.88005      .   S
    Zr23   O77       1.76451      .   S
    C78    O79       0.84210      .   S
    Zr11   O79       1.71090      .   S
    C78    O80       1.05575      .   S
    Zr23   O80       2.06274      .   S
    C78    O81       1.15271      .   S
    N44    O81       2.30540      .   S
    C82    O83       1.07231      .   S
    N37    O83       2.08790      .   S
    C82    O84       0.88050      .   S
    Zr15   O84       1.76493      .   S
    C82    O85       0.92289      .   S
    Zr10   O85       1.82414      .   S
    C86    O87       0.90246      .   S
    Zr23   O87       1.79549      .   S
    C86    O88       0.98914      .   S
    Zr21   O88       1.92136      .   S
    C86    O89       1.07093  1_545   S
    N47    O89       2.08535      .   S
    C90    O91       0.61059      .   S
    Zr0    O91       1.65219      .   S
    C90    O92       0.63276      .   S
    Zr14   O92       1.60112      .   S
    C90    O93       0.63533      .   S
    Zr11   O93       1.60378  1_655   S
    C94    O95       1.07167      .   S
    N32    O95       2.08656  1_565   S
    C94    O96       0.92859      .   S
    Zr18   O96       1.83271      .   S
    C94    O97       0.87215      .   S
    Zr22   O97       1.75064      .   S
    C98    O99       0.90536      .   S
    Zr15   O99       1.79964      .   S
    C98    O100      0.98661      .   S
    Zr12   O100      1.91674      .   S
    C98    O101      1.07050      .   S
    N36    O101      2.08491      .   S
    C102   O103      0.84697      .   S
    Zr18   O103      1.71757      .   S
    C102   O104      1.15230      .   S
    N45    O104      2.30467      .   S
    C102   O105      1.05442      .   S
    Zr14   O105      2.05856      .   S
    C106   O107      1.14399      .   S
    N39    O107      2.29564      .   S
    C106   O108      0.91556      .   S
    Zr1    O108      1.85612      .   S
    C106   O109      0.86675      .   S
    Zr21   O109      1.76652      .   S
    C110   O111      1.14146      .   S
    N46    O111      2.29059      .   S
    C110   O112      0.91513      .   S
    Zr0    O112      1.85212      .   S
    C110   O113      0.86428      .   S
    Zr20   O113      1.76061      .   S
    C114   O115      0.93341      .   S
    Zr24   O115      1.87510      .   S
    C114   O116      1.17576      .   S
    N45    O116      2.39061      .   S
    C114   O117      0.83949      .   S
    Zr12   O117      1.70579      .   S
    C118   O119      0.61873      .   S
    Zr11   O119      1.57742      .   S
    C118   O120      0.67661      .   S
    Zr13   O120      1.64801      .   S
    C118   O121      0.60550      .   S
    Zr25   O121      1.62273      .   S
    C122   O123      0.88111      .   S
    Zr0    O123      1.78753      .   S
    C122   O124      1.17776      .   S
    N41    O124      2.39359  1_655   S
    C125   O126      0.87824      .   S
    Zr1    O126      1.78354      .   S
    C125   O127      1.17725      .   S
    N43    O127      2.39252      .   S
    C128   O129      0.91435      .   S
    Zr24   O129      1.85180      .   S
    C128   O130      1.14269      .   S
    N43    O130      2.29338      .   S
    C128   O131      0.87109      .   S
    Zr12   O131      1.77456      .   S
    C132   O133      0.63308      .   S
    Zr22   O133      1.60435      .   S
    C132   O134      0.63617      .   S
    Zr18   O134      1.60926      .   S
    C132   O135      0.60993      .   S
    Zr24   O135      1.64932      .   S
    C136   O137      0.63733      .   S
    Zr19   O137      1.60963      .   S
    C136   O138      0.63399      .   S
    Zr23   O138      1.60694      .   S
    C136   O139      0.61115      .   S
    Zr25   O139      1.65615      .   S
    C140   O141      1.14304      .   S
    N41    O141      2.29352      .   S
    C140   O142      0.86882      .   S
    Zr13   O142      1.76953      .   S
    C140   O143      0.91554      .   S
    Zr25   O143      1.85509      .   S
    C144   O145      0.61693      .   S
    Zr10   O145      1.57284      .   S
    C144   O146      0.60758      .   S
    Zr24   O146      1.62282      .   S
    C144   O147      0.67685      .   S
    Zr12   O147      1.64777      .   S
    C148   O149      0.93290      .   S
    Zr1    O149      1.87498      .   S
    C148   O150      0.83731      .   S
    Zr21   O150      1.70296      .   S
    C148   O151      1.17617      .   S
    N42    O151      2.39132      .   S
    C152   O153      0.97839  1_455   S
    Zr13   O153      1.90179      .   S
    C152   O154      1.07091      .   S
    N34    O154      2.08449      .   S
    C152   O155      0.90739      .   S
    Zr14   O155      1.80170      .   S
    C156   O157      0.92970      .   S
    Zr11   O157      1.81507  1_655   S
    C156   O158      0.88060      .   S
    Zr14   O158      1.76041      .   S
    C156   O159      1.07459      .   S
    N38    O159      2.09074      .   S
    C160   O161      0.61770      .   S
    Zr18   O161      1.57675      .   S
    C160   O162      0.60645      .   S
    Zr0    O162      1.62058      .   S
    C160   O163      0.67722      .   S
    Zr20   O163      1.65070      .   S
    C164   O165      0.92786      .   S
    Zr0    O165      1.86192      .   S
    C164   O166      1.17458      .   S
    N44    O166      2.38816  1_655   S
    C164   O167      0.84014      .   S
    Zr20   O167      1.70545      .   S
    C168   O169      0.98728      .   S
    Zr20   O169      1.91801      .   S
    C168   O170      1.06885  1_545   S
    N35    O170      2.08155      .   S
    C168   O171      0.90518      .   S
    Zr22   O171      1.79756      .   S
    C172   O173      0.63618  1_554   S
    Zr3    O173      1.60817      .   S
    C172   O174      0.63260      .   S
    Zr7    O174      1.60475      .   S
    C172   O175      0.61134      .   S
    Zr9    O175      1.65504  1_556   S
    C176   O177      0.63643  1_554   S
    Zr2    O177      1.60829      .   S
    C176   O178      0.63368      .   S
    Zr6    O178      1.60694      .   S
    C176   O179      0.61065      .   S
    Zr8    O179      1.65400  1_556   S
    C180   O181      1.17459      .   S
    N40    O181      2.38888      .   S
    C180   O182      0.92791      .   S
    Zr9    O182      1.86746      .   S
    C180   O183      0.84453      .   S
    Zr29   O183      1.71157      .   S
    C184   O185      0.98882      .   S
    Zr5    O185      1.92143      .   S
    C184   O186      1.07038      .   S
    N39    O186      2.08424      .   S
    C184   O187      0.90274      .   S
    Zr7    O187      1.79270      .   S
    C188   O189      0.92325      .   S
    Zr27   O189      1.82488      .   S
    C188   O190      0.88070      .   S
    Zr30   O190      1.76579  1_556   S
    C188   O191      1.07200      .   S
    N42    O191      2.08725  1_545   S
    C192   O193      0.91326      .   S
    Zr16   O193      1.85340      .   S
    C192   O194      0.86947      .   S
    Zr4    O194      1.76986      .   S
    C192   O195      1.14208      .   S
    N35    O195      2.29175      .   S
    C196   O197      0.92817      .   S
    Zr26   O197      1.83459  1_455   S
    C196   O198      1.07180      .   S
    N44    O198      2.08708  1_545   S
    C196   O199      0.87495      .   S
    Zr31   O199      1.75540  1_556   S
    C200   O201      0.93286      .   S
    Zr16   O201      1.87387      .   S
    C200   O202      0.83707      .   S
    Zr4    O202      1.70367      .   S
    C200   O203      1.17601      .   S
    N37    O203      2.39088      .   S
    C204   O205      0.93198      .   S
    Zr17   O205      1.87233      .   S
    C204   O206      1.17536      .   S
    N38    O206      2.38973  1_455   S
    C204   O207      0.83775      .   S
    Zr5    O207      1.70338      .   S
    C208   O209      0.63256      .   S
    Zr31   O209      1.60211      .   S
    C208   O210      0.60939      .   S
    Zr17   O210      1.65106  1_554   S
    C208   O211      0.63583  1_556   S
    Zr26   O211      1.60741  1_455   S
    C212   O213      0.61683      .   S
    Zr2    O213      1.57274      .   S
    C212   O214      0.67898  1_556   S
    Zr4    O214      1.65065      .   S
    C212   O215      0.60593      .   S
    Zr16   O215      1.61825  1_554   S
    C216   O217      1.14356      .   S
    N36    O217      2.29470      .   S
    C216   O218      0.86211      .   S
    Zr29   O218      1.76013      .   S
    C216   O219      0.92095      .   S
    Zr9    O219      1.86429      .   S
    C220   O221      0.61711      .   S
    Zr3    O221      1.57340      .   S
    C220   O222      0.67898  1_556   S
    Zr5    O222      1.64977      .   S
    C220   O223      0.60643      .   S
    Zr17   O223      1.62090  1_554   S
    C224   O225      1.17777      .   S
    N47    O225      2.39357      .   S
    C224   O226      0.87853      .   S
    Zr9    O226      1.78014  1_556   S
    C227   O228      1.07024  1_565   S
    N43    O228      2.08430      .   S
    C227   O229      0.90527      .   S
    Zr30   O229      1.79894      .   S
    C227   O230      0.98669      .   S
    Zr29   O230      1.91597      .   S
    C231   O232      1.06922      .   S
    N46    O232      2.08194      .   S
    C231   O233      0.90176      .   S
    Zr6    O233      1.79240      .   S
    C231   O234      0.98965      .   S
    Zr4    O234      1.92133      .   S
    C235   O236      1.15282      .   S
    N38    O236      2.30551      .   S
    C235   O237      0.84371      .   S
    Zr26   O237      1.71129      .   S
    C235   O238      1.05278      .   S
    Zr6    O238      2.05586      .   S
    C239   O240      1.05329      .   S
    Zr7    O240      2.05590      .   S
    C239   O241      1.15230      .   S
    N37    O241      2.30462      .   S
    C239   O242      0.84642      .   S
    Zr27   O242      1.71629      .   S
    C243   O244      1.05505      .   S
    Zr31   O244      2.05964      .   S
    C243   O245      0.84842      .   S
    Zr3    O245      1.72070      .   S
    C243   O246      1.15256      .   S
    N40    O246      2.30479      .   S
    C247   O248      0.84535      .   S
    Zr28   O248      1.71503      .   S
    C247   O249      0.92837      .   S
    Zr8    O249      1.86378      .   S
    C247   O250      1.17397      .   S
    N32    O250      2.38765      .   S
    C251   O252      1.17693      .   S
    N35    O252      2.39228      .   S
    C251   O253      0.87503      .   S
    Zr8    O253      1.77353  1_556   S
    C254   O255      1.07223      .   S
    N33    O255      2.08779      .   S
    C254   O256      0.92329      .   S
    Zr3    O256      1.82469      .   S
    C254   O257      0.87756      .   S
    Zr7    O257      1.76159  1_554   S
    C258   O259      0.92295      .   S
    Zr2    O259      1.82474      .   S
    C258   O260      0.88051      .   S
    Zr6    O260      1.76602  1_554   S
    C258   O261      1.07248      .   S
    N45    O261      2.08856      .   S
    C262   O263      0.87918      .   S
    Zr16   O263      1.78479  1_554   S
    C262   O264      1.17743      .   S
    N36    O264      2.39263      .   S
    C265   O266      1.15230      .   S
    N32    O266      2.30435      .   S
    C265   O267      0.84872      .   S
    Zr2    O267      1.72160      .   S
    C265   O268      1.05763      .   S
    Zr30   O268      2.06489      .   S
    C269   O270      0.86538      .   S
    Zr28   O270      1.76226      .   S
    C269   O271      1.14290      .   S
    N34    O271      2.29360      .   S
    C269   O272      0.91988      .   S
    Zr8    O272      1.86300      .   S
    C273   O274      0.61793      .   S
    Zr26   O274      1.57622      .   S
    C273   O275      0.60454      .   S
    Zr8    O275      1.62266  1_556   S
    C273   O276      0.67692  1_554   S
    Zr28   O276      1.65159      .   S
    C277   O278      0.63255      .   S
    Zr30   O278      1.60219      .   S
    C277   O279      0.61097      .   S
    Zr16   O279      1.65182  1_554   S
    C277   O280      0.63456  1_556   S
    Zr27   O280      1.60524      .   S
    C281   O282      0.91551      .   S
    Zr17   O282      1.85588      .   S
    C281   O283      1.14380      .   S
    N47    O283      2.29478      .   S
    C281   O284      0.86593      .   S
    Zr5    O284      1.76585      .   S
    C285   O286      0.98321  1_655   S
    Zr28   O286      1.90940      .   S
    C285   O287      1.07038  1_565   S
    N41    O287      2.08419      .   S
    C285   O288      0.90588      .   S
    Zr31   O288      1.80226      .   S
    C289   O290      0.61598      .   S
    Zr27   O290      1.57580      .   S
    C289   O291      0.60480      .   S
    Zr9    O291      1.61746  1_556   S
    C289   O292      0.67869  1_554   S
    Zr29   O292      1.65420      .   S
    C293   O294      1.17705      .   S
    N34    O294      2.39221  1_455   S
    C293   O295      0.87853      .   S
    Zr17   O295      1.78254  1_554   S
