# CIF file generated by openbabel 2.4.90, see http://openbabel.sf.net
data_I
_chemical_name_common ''
_cell_length_a 14.565
_cell_length_b 15.855
_cell_length_c 18.856
_cell_angle_alpha 90.398
_cell_angle_beta 90.114
_cell_angle_gamma 90.004
_space_group_name_H-M_alt 'P 1'
_space_group_name_Hall 'P 1'
loop_
    _symmetry_equiv_pos_as_xyz
    x,y,z
loop_
    _atom_site_label
    _atom_site_type_symbol
    _atom_site_fract_x
    _atom_site_fract_y
    _atom_site_fract_z
    _atom_site_occupancy
    H0      H    0.63337   0.29771   0.86425   1.000
    H1      H    0.65951   0.23569   0.74314   1.000
    H2      H    0.38791   0.12931   0.74586   1.000
    H3      H    0.36165   0.19131   0.86628   1.000
    H4      H    0.11084   0.61738   0.01121   1.000
    H5      H    0.05268   0.35192   0.01663   1.000
    H6      H    0.36681   0.20217   0.36252   1.000
    H7      H    0.33985   0.26536   0.24258   1.000
    H8      H    0.61216   0.37028   0.24643   1.000
    H9      H    0.63935   0.30679   0.36556   1.000
    H10     H    0.88834   0.88191   0.50988   1.000
    H11     H    0.94724   0.14732   0.51773   1.000
    H12     H    0.36480   0.70290   0.13268   1.000
    H13     H    0.33956   0.76504   0.25383   1.000
    H14     H    0.61211   0.86934   0.25069   1.000
    H15     H    0.63750   0.80711   0.13025   1.000
    H16     H    0.88816   0.38108   0.98563   1.000
    H17     H    0.94634   0.64653   0.00000   1.000
    H18     H    0.63310   0.79698   0.63494   1.000
    H19     H    0.65950   0.73309   0.75467   1.000
    H20     H    0.38698   0.62870   0.74986   1.000
    H21     H    0.36044   0.69263   0.63088   1.000
    H22     H    0.11154   0.11766   0.48679   1.000
    H23     H    0.05261   0.85228   0.47889   1.000
    H24     H    0.86623   0.79532   0.13427   1.000
    H25     H    0.83986   0.73183   0.25412   1.000
    H26     H    0.11292   0.62863   0.25083   1.000
    H27     H    0.13946   0.69225   0.13174   1.000
    H28     H    0.38817   0.11616   0.98608   1.000
    H29     H    0.44783   0.85090   0.00000   1.000
    H30     H    0.13508   0.70220   0.63347   1.000
    H31     H    0.15985   0.76351   0.75507   1.000
    H32     H    0.88796   0.86923   0.75040   1.000
    H33     H    0.86295   0.80764   0.62958   1.000
    H34     H    0.61154   0.38155   0.48595   1.000
    H35     H    0.55338   0.64698   0.47990   1.000
    H36     H    0.13375   0.20104   0.86235   1.000
    H37     H    0.16049   0.26467   0.74264   1.000
    H38     H    0.88808   0.36936   0.74615   1.000
    H39     H    0.86104   0.30525   0.86497   1.000
    H40     H    0.61212   0.88114   0.01034   1.000
    H41     H    0.55249   0.14642   0.01706   1.000
    H42     H    0.86680   0.29802   0.36347   1.000
    H43     H    0.84087   0.23600   0.24225   1.000
    H44     H    0.11224   0.12914   0.24628   1.000
    H45     H    0.13829   0.19113   0.36681   1.000
    H46     H    0.38905   0.61795   0.51082   1.000
    H47     H    0.44720   0.35250   0.51692   1.000
    C48     C    0.49557   0.24913   0.87183   1.000
    C49     C    0.58031   0.26054   0.83787   1.000
    C50     C    0.59475   0.22621   0.77071   1.000
    C51     C    0.52475   0.17994   0.73704   1.000
    C52     C    0.44121   0.16618   0.77213   1.000
    C53     C    0.42663   0.20066   0.83906   1.000
    C54     C    0.09119   0.48294   0.01604   1.000
    C55     C    0.06156   0.56613   0.00569   1.000
    C56     C    0.02857   0.41615   0.00862   1.000
    C57     C    0.50497   0.24990   0.37051   1.000
    C58     C    0.41984   0.23922   0.33660   1.000
    C59     C    0.40494   0.27424   0.27013   1.000
    C60     C    0.47485   0.32061   0.23721   1.000
    C61     C    0.55892   0.33344   0.27221   1.000
    C62     C    0.57400   0.29811   0.33840   1.000
    C63     C    0.90829   0.01639   0.51592   1.000
    C64     C    0.93771   0.93307   0.50489   1.000
    C65     C    0.97111   0.08299   0.50918   1.000
    C66     C    0.50304   0.75034   0.12486   1.000
    C67     C    0.41830   0.73961   0.15897   1.000
    C68     C    0.40434   0.77404   0.22617   1.000
    C69     C    0.47483   0.81979   0.25976   1.000
    C70     C    0.55840   0.83287   0.22452   1.000
    C71     C    0.57249   0.79825   0.15756   1.000
    C72     C    0.90781   0.51551   0.98088   1.000
    C73     C    0.93746   0.43233   0.99118   1.000
    C74     C    0.97045   0.58230   0.00000   1.000
    C75     C    0.49487   0.74950   0.62640   1.000
    C76     C    0.57988   0.75987   0.66058   1.000
    C77     C    0.59448   0.72443   0.72695   1.000
    C78     C    0.52437   0.67806   0.75961   1.000
    C79     C    0.44043   0.66555   0.72434   1.000
    C80     C    0.42569   0.70117   0.65822   1.000
    C81     C    0.09157   0.98321   0.48077   1.000
    C82     C    0.06215   0.06653   0.49177   1.000
    C83     C    0.02875   0.91661   0.48747   1.000
    C84     C    0.00475   0.74843   0.12658   1.000
    C85     C    0.91955   0.75855   0.16028   1.000
    C86     C    0.90496   0.72337   0.22669   1.000
    C87     C    0.97527   0.67748   0.25977   1.000
    C88     C    0.05938   0.66515   0.22494   1.000
    C89     C    0.07412   0.70054   0.15879   1.000
    C90     C    0.40852   0.98173   0.98066   1.000
    C91     C    0.43775   0.06519   0.99132   1.000
    C92     C    0.47155   0.91534   0.00000   1.000
    C93     C    0.99714   0.75028   0.62493   1.000
    C94     C    0.08164   0.73902   0.65955   1.000
    C95     C    0.09531   0.77298   0.72698   1.000
    C96     C    0.02484   0.81885   0.76024   1.000
    C97     C    0.94160   0.83261   0.72446   1.000
    C98     C    0.92775   0.79838   0.65729   1.000
    C99     C    0.59192   0.51596   0.48084   1.000
    C100    C    0.56229   0.43282   0.49134   1.000
    C101    C    0.52931   0.58277   0.48804   1.000
    C102    C    0.99550   0.24854   0.87015   1.000
    C103    C    0.08062   0.23811   0.83640   1.000
    C104    C    0.09542   0.27340   0.77006   1.000
    C105    C    0.02547   0.31989   0.73709   1.000
    C106    C    0.94139   0.33244   0.77193   1.000
    C107    C    0.92639   0.29678   0.83796   1.000
    C108    C    0.59180   0.01559   0.01582   1.000
    C109    C    0.56259   0.93213   0.00509   1.000
    C110    C    0.52878   0.08198   0.00874   1.000
    C111    C    0.00448   0.24922   0.37171   1.000
    C112    C    0.91985   0.26076   0.33735   1.000
    C113    C    0.90553   0.22641   0.27013   1.000
    C114    C    0.97553   0.18000   0.23680   1.000
    C115    C    0.05896   0.16613   0.27229   1.000
    C116    C    0.07341   0.20063   0.33928   1.000
    C117    C    0.40868   0.48351   0.51599   1.000
    C118    C    0.43828   0.56666   0.50545   1.000
    C119    C    0.47127   0.41670   0.50876   1.000
loop_
    _geom_bond_atom_site_label_1
    _geom_bond_atom_site_label_2
    _geom_bond_distance
    _geom_bond_site_symmetry_2
    _ccdc_geom_bond_type
    H17    C74       1.07725      .   S
    H29    C92       1.07837      .   S
    C74    C55       1.35572  1_655   S
    C74    C72       1.44114  1_554   S
    C92    C109      1.35547      .   S
    C92    C90       1.44501  1_554   S
    C109   H40       1.08857      .   S
    C109   C108      1.40305  1_565   S
    C55    H4        1.08857      .   S
    C55    C54       1.40259      .   S
    C56    C54       1.40369      .   S
    C56    H5        1.08866      .   S
    C56    C73       1.39083  1_454   S
    C110   C108      1.40364      .   S
    C110   H41       1.08866      .   S
    C110   C91       1.39057  1_554   S
    C66    C71       1.40408      .   S
    C66    C67       1.40386      .   S
    C84    C89       1.40367      .   S
    C84    C85       1.40399  1_455   S
    H15    C71       1.08827      .   S
    H27    C89       1.08826      .   S
    H12    C67       1.08915      .   S
    H24    C85       1.08906      .   S
    C71    C70       1.38893      .   S
    C89    C88       1.38824      .   S
    C67    C68       1.39143      .   S
    C85    C86       1.39110      .   S
    C70    H14       1.08828      .   S
    C70    C69       1.40401      .   S
    C88    H26       1.08818      .   S
    C88    C87       1.40424  1_455   S
    C68    H13       1.08886      .   S
    C68    C69       1.40437      .   S
    C86    H25       1.08886      .   S
    C86    C87       1.40388      .   S
    C114   C113      1.40424      .   S
    C114   C115      1.40416  1_655   S
    C60    C59       1.40403      .   S
    C60    C61       1.40394      .   S
    H43    C113      1.08884      .   S
    H7     C59       1.08885      .   S
    H44    C115      1.08826      .   S
    H8     C61       1.08822      .   S
    C113   C112      1.39141      .   S
    C59    C58       1.39099      .   S
    C61    C62       1.38854      .   S
    C115   C116      1.38859      .   S
    C58    H6        1.08908      .   S
    C58    C57       1.40366      .   S
    C112   H42       1.08917      .   S
    C112   C111      1.40392  1_655   S
    C62    H9        1.08827      .   S
    C62    C57       1.40378      .   S
    C116   H45       1.08824      .   S
    C116   C111      1.40415      .   S
    H23    C83       1.08870      .   S
    H35    C101      1.08868      .   S
    C81    C83       1.40370      .   S
    C81    C82       1.40301  1_565   S
    C99    C101      1.40378      .   S
    C99    C100      1.40250      .   S
    H34    C100      1.08854      .   S
    H22    C82       1.08855      .   S
    C83    C64       1.39097  1_455   S
    C101   C118      1.39057      .   S
    C100   C119      1.39049      .   S
    C82    C65       1.39086  1_455   S
    C64    H10       1.08861      .   S
    C64    C63       1.40309  1_565   S
    C118   H46       1.08858      .   S
    C118   C117      1.40266      .   S
    C119   C117      1.40368      .   S
    C119   H47       1.08865      .   S
    C65    C63       1.40368      .   S
    C65    H11       1.08867      .   S
    C93    C98       1.40404      .   S
    C93    C94       1.40403  1_655   S
    C75    C80       1.40399      .   S
    C75    C76       1.40378      .   S
    H33    C98       1.08825      .   S
    H21    C80       1.08825      .   S
    H30    C94       1.08916      .   S
    H18    C76       1.08911      .   S
    C98    C97       1.38878      .   S
    C80    C79       1.38857      .   S
    C94    C95       1.39133      .   S
    C76    C77       1.39145      .   S
    C79    H20       1.08822      .   S
    C79    C78       1.40404      .   S
    C97    H32       1.08827      .   S
    C97    C96       1.40417  1_655   S
    C77    H19       1.08889      .   S
    C77    C78       1.40412      .   S
    C95    H31       1.08884      .   S
    C95    C96       1.40431      .   S
    C51    C50       1.40417      .   S
    C51    C52       1.40398      .   S
    C105   C104      1.40408      .   S
    C105   C106      1.40431  1_455   S
    H37    C104      1.08886      .   S
    H1     C50       1.08884      .   S
    H2     C52       1.08823      .   S
    H38    C106      1.08823      .   S
    C104   C103      1.39112      .   S
    C50    C49       1.39139      .   S
    C106   C107      1.38871      .   S
    C52    C53       1.38858      .   S
    C103   H36       1.08907      .   S
    C103   C102      1.40402  1_455   S
    C49    H0        1.08918      .   S
    C49    C48       1.40371      .   S
    C107   H39       1.08829      .   S
    C107   C102      1.40380      .   S
    C53    H3        1.08823      .   S
    C53    C48       1.40404      .   S
    C90    C91       1.40311  1_565   S
    C72    C73       1.40255      .   S
    H16    C73       1.08864      .   S
    H28    C91       1.08858      .   S
