# CIF file generated by openbabel 2.4.90, see http://openbabel.sf.net
data_I
_chemical_name_common ''
_cell_length_a 14.565
_cell_length_b 15.855
_cell_length_c 18.856
_cell_angle_alpha 90.398
_cell_angle_beta 90.114
_cell_angle_gamma 90.004
_space_group_name_H-M_alt 'P 1'
_space_group_name_Hall 'P 1'
loop_
    _symmetry_equiv_pos_as_xyz
    x,y,z
loop_
    _atom_site_label
    _atom_site_type_symbol
    _atom_site_fract_x
    _atom_site_fract_y
    _atom_site_fract_z
    _atom_site_occupancy
    Zn0     Zn   0.34347   0.36341   0.03424   1.000
    Zn1     Zn   0.46927   0.07102   0.53826   1.000
    Zn2     Zn   0.65612   0.13676   0.53394   1.000
    Zn3     Zn   0.46858   0.56997   0.95675   1.000
    Zn4     Zn   0.65569   0.63422   0.96285   1.000
    Zn5     Zn   0.53076   0.92867   0.45859   1.000
    Zn6     Zn   0.34391   0.86311   0.46301   1.000
    Zn7     Zn   0.96901   0.92649   0.95922   1.000
    Zn8     Zn   0.15606   0.86245   0.96346   1.000
    Zn9     Zn   0.03139   0.56991   0.45696   1.000
    Zn10    Zn   0.84423   0.63420   0.46279   1.000
    Zn11    Zn   0.03086   0.07060   0.03807   1.000
    Zn12    Zn   0.84390   0.13595   0.03381   1.000
    Zn13    Zn   0.97214   0.42986   0.54021   1.000
    Zn14    Zn   0.15663   0.36351   0.53442   1.000
    H15     H    0.34785   0.50827   0.03321   1.000
    H16     H    0.65130   0.99220   0.53382   1.000
    H17     H    0.64868   0.49026   0.96356   1.000
    Zn18    Zn   0.52788   0.42992   0.04018   1.000
    H19     H    0.34861   0.00760   0.46308   1.000
    H20     H    0.15087   0.00632   0.96322   1.000
    H21     H    0.85107   0.49028   0.46356   1.000
    H22     H    0.84942   0.99160   0.03399   1.000
    H23     H    0.15232   0.50837   0.53346   1.000
    C24     C    0.47602   0.29284   0.94045   1.000
    C25     C    0.53727   0.14786   0.66315   1.000
    C26     C    0.18975   0.46621   0.03303   1.000
    C27     C    0.52447   0.20618   0.43867   1.000
    C28     C    0.46159   0.35367   0.16411   1.000
    C29     C    0.80981   0.03352   0.53296   1.000
    C30     C    0.52192   0.70650   0.05612   1.000
    O31     O    0.03098   0.60377   0.35934   1.000
    O32     O    0.88701   0.65939   0.36434   1.000
    O33     O    0.28518   0.88565   0.96899   1.000
    O34     O    0.25723   0.00000   0.94728   1.000
    C35     C    0.46262   0.85197   0.33367   1.000
    C36     C    0.80922   0.53238   0.96398   1.000
    C37     C    0.47554   0.79355   0.55832   1.000
    C38     C    0.53715   0.64472   0.83273   1.000
    C39     C    0.19011   0.96616   0.46386   1.000
    C40     C    0.02402   0.79246   0.05861   1.000
    C41     C    0.96260   0.64448   0.33292   1.000
    C42     C    0.30995   0.96436   0.96381   1.000
    C43     C    0.97824   0.70658   0.55610   1.000
    C44     C    0.03671   0.85046   0.83437   1.000
    C45     C    0.69046   0.53270   0.46394   1.000
    C46     C    0.97629   0.20467   0.93825   1.000
    C47     C    0.03865   0.35338   0.66413   1.000
    C48     C    0.69030   0.03300   0.03293   1.000
    C49     C    0.02399   0.29287   0.44043   1.000
    C50     C    0.96301   0.14784   0.16289   1.000
    C51     C    0.31023   0.46673   0.53305   1.000
    O52     O    0.40319   0.48083   0.00855   1.000
    O53     O    0.53984   0.33670   0.96886   1.000
    O54     O    0.39462   0.28466   0.96526   1.000
    O55     O    0.46898   0.10754   0.63581   1.000
    O56     O    0.61298   0.16318   0.63214   1.000
    O57     O    0.21470   0.38750   0.02800   1.000
    O58     O    0.24231   0.52636   0.04957   1.000
    O59     O    0.59581   0.01921   0.50913   1.000
    O60     O    0.46030   0.16270   0.46630   1.000
    O61     O    0.60585   0.21429   0.46388   1.000
    O62     O    0.52870   0.39614   0.13802   1.000
    O63     O    0.38648   0.33705   0.13231   1.000
    O64     O    0.78495   0.11219   0.52797   1.000
    O65     O    0.75728   0.97369   0.54949   1.000
    O66     O    0.59402   0.51842   0.98812   1.000
    O67     O    0.45741   0.66312   0.02803   1.000
    O68     O    0.60319   0.71416   0.03097   1.000
    O69     O    0.53099   0.89226   0.36096   1.000
    O70     O    0.38696   0.83675   0.36478   1.000
    O71     O    0.78463   0.61125   0.96908   1.000
    O72     O    0.75640   0.47246   0.94750   1.000
    O73     O    0.40414   0.98059   0.48772   1.000
    O74     O    0.53971   0.83714   0.53078   1.000
    O75     O    0.39417   0.78556   0.53306   1.000
    O76     O    0.46889   0.60384   0.85894   1.000
    O77     O    0.61281   0.65953   0.86434   1.000
    O78     O    0.21504   0.88752   0.46888   1.000
    O79     O    0.24261   0.00000   0.44743   1.000
    O80     O    0.09563   0.97941   0.98802   1.000
    O81     O    0.95926   0.83534   0.03075   1.000
    O82     O    0.10550   0.78533   0.03380   1.000
    O83     O    0.90588   0.51838   0.48812   1.000
    O84     O    0.04269   0.66318   0.52813   1.000
    O85     O    0.89694   0.71428   0.53080   1.000
    O86     O    0.96900   0.89205   0.86103   1.000
    O87     O    0.11148   0.83343   0.86633   1.000
    O88     O    0.71526   0.61151   0.46906   1.000
    O89     O    0.74308   0.47272   0.44745   1.000
    O90     O    0.90470   0.01831   0.00910   1.000
    O91     O    0.04111   0.16225   0.96641   1.000
    O92     O    0.89466   0.21167   0.96291   1.000
    O93     O    0.97151   0.39603   0.63806   1.000
    O94     O    0.11370   0.33697   0.63241   1.000
    O95     O    0.71499   0.11171   0.02784   1.000
    O96     O    0.74302   0.97336   0.04963   1.000
    O97     O    0.09683   0.48084   0.50883   1.000
    O98     O    0.96017   0.33668   0.46873   1.000
    O99     O    0.10542   0.28469   0.46544   1.000
    O100    O    0.03119   0.10743   0.13572   1.000
    O101    O    0.88724   0.16321   0.13172   1.000
    O102    O    0.28529   0.38801   0.52805   1.000
    O103    O    0.25773   0.52685   0.54963   1.000
loop_
    _geom_bond_atom_site_label_1
    _geom_bond_atom_site_label_2
    _geom_bond_distance
    _geom_bond_site_symmetry_2
    _ccdc_geom_bond_type
    O52    H15       1.02660      .   S
    O52    Zn3       1.97003  1_554   S
    O90    H22       1.02562  1_545   S
    O90    Zn7       1.96618  1_544   S
    O95    C48       1.30290      .   S
    O95    Zn12      1.91943      .   S
    O57    C26       1.30264      .   S
    O57    Zn0       1.91761      .   S
    O67    C30       1.27651      .   S
    O67    Zn3       1.99688  1_554   S
    O81    C40       1.27704  1_655   S
    O81    Zn7       1.98898  1_554   S
    O68    C30       1.28209      .   S
    O68    Zn4       1.95508  1_554   S
    C48    O96       1.25954  1_545   S
    C26    O58       1.26000      .   S
    O82    C40       1.28120      .   S
    O82    Zn8       1.95530  1_554   S
    Zn12   O101      1.99450      .   S
    Zn12   O92       1.94968  1_554   S
    Zn0    O63       1.99822      .   S
    Zn0    O54       1.94609  1_554   S
    Zn11   O100      1.92790      .   S
    Zn11   O91       1.99691  1_554   S
    Zn11   O80       1.96347  1_544   S
    Zn18   O62       1.92474      .   S
    Zn18   O53       1.99919  1_554   S
    Zn18   O66       1.97055  1_554   S
    O101   C50       1.27363      .   S
    O63    C28       1.27314      .   S
    O100   C50       1.28709  1_455   S
    O62    C28       1.28732      .   S
    C41    O31       1.28813  1_655   S
    C41    O32       1.27269      .   S
    C35    O69       1.28757      .   S
    C35    O70       1.27327      .   S
    O31    Zn9       1.92108      .   S
    O69    Zn5       1.92541      .   S
    O32    Zn10      2.00218      .   S
    O70    Zn6       1.99799      .   S
    C27    O61       1.28222      .   S
    C27    O60       1.27560      .   S
    C49    O99       1.28235      .   S
    C49    O98       1.27598  1_455   S
    O79    C39       0.98578  1_545   S
    O89    C45       1.25916      .   S
    Zn9    O97       1.96843      .   S
    Zn9    O84       1.99655      .   S
    Zn5    O59       1.96060  1_565   S
    Zn5    O74       2.00073      .   S
    Zn10   O88       1.91666      .   S
    Zn10   O85       1.95425      .   S
    Zn6    O78       1.91982      .   S
    Zn6    O75       1.95220      .   S
    H19    O73       1.02700  1_545   S
    H21    O83       1.02264      .   S
    C39    O78       1.30266      .   S
    O61    Zn2       1.95213      .   S
    C45    O88       1.30354      .   S
    O99    Zn14      1.94510      .   S
    O60    Zn1       1.99934      .   S
    O98    Zn13      2.00032      .   S
    O73    Zn1       1.95979  1_565   S
    O83    Zn13      1.97015      .   S
    O97    H23       1.02713      .   S
    O59    H16       1.02696  1_545   S
    O64    C29       1.30271      .   S
    O64    Zn2       1.91979      .   S
    O102   C51       1.30259      .   S
    O102   Zn14      1.91793      .   S
    O84    C43       1.27662  1_455   S
    O74    C37       1.27578      .   S
    O85    C43       1.28198      .   S
    C29    O65       1.25985  1_545   S
    C51    O103      1.26002      .   S
    O75    C37       1.28230      .   S
    Zn2    O56       1.99826      .   S
    Zn14   Zn13      2.88771  1_455   S
    Zn14   O94       1.99943      .   S
    Zn1    O55       1.92463      .   S
    Zn13   O93       1.92512      .   S
    O56    C25       1.27328      .   S
    O94    C47       1.27314      .   S
    O55    C25       1.28737      .   S
    O93    C47       1.28762  1_655   S
    C38    O76       1.28796      .   S
    C38    O77       1.27287      .   S
    C44    O86       1.28752  1_455   S
    C44    O87       1.27348      .   S
    O76    Zn3       1.92442      .   S
    O86    Zn7       1.92671      .   S
    O77    Zn4       2.00179      .   S
    O87    Zn8       1.99275      .   S
    C46    O92       1.28190      .   S
    C46    O91       1.27618  1_655   S
    C24    O54       1.28228      .   S
    C24    O53       1.27575      .   S
    O34    C42       1.00383  1_545   S
    O72    C36       1.25929      .   S
    Zn4    O71       1.91666      .   S
    H20    O80       1.02576  1_545   S
    Zn8    O33       1.91869      .   S
    H17    O66       1.02286      .   S
    C42    O33       1.30342      .   S
    C36    O71       1.30368      .   S
    O52    Zn18      2.07568      .   S
    O52    Zn0       2.11461      .   S
    O59    Zn1       2.09077      .   S
    O59    Zn2       2.10958      .   S
    O66    Zn3       2.08765      .   S
    O66    Zn4       2.10199      .   S
    O73    Zn5       2.09248      .   S
    O73    Zn6       2.10767      .   S
    O80    Zn7       2.09510  1_455   S
    O80    Zn8       2.10200      .   S
    O83    Zn9       2.08932  1_655   S
    O83    Zn10      2.10161      .   S
    O90    Zn11      2.08609  1_655   S
    O90    Zn12      2.11426      .   S
    O97    Zn13      2.07657  1_455   S
    O97    Zn14      2.11263      .   S
