# CIF file generated by openbabel 2.4.90, see http://openbabel.sf.net
data_I
_chemical_name_common ''
_cell_length_a 14.131
_cell_length_b 14.13
_cell_length_c 14.133
_cell_angle_alpha 104.811
_cell_angle_beta 104.76
_cell_angle_gamma 104.833
_space_group_name_H-M_alt 'P 1'
_space_group_name_Hall 'P 1'
loop_
    _symmetry_equiv_pos_as_xyz
    x,y,z
loop_
    _atom_site_label
    _atom_site_type_symbol
    _atom_site_fract_x
    _atom_site_fract_y
    _atom_site_fract_z
    _atom_site_occupancy
    Ag0     Ag   0.52125   0.78706   0.78711   1.000
    Ag1     Ag   0.78721   0.52154   0.78723   1.000
    Ag2     Ag   0.21297   0.21297   0.47895   1.000
    Ag3     Ag   0.21280   0.47843   0.21279   1.000
    Ag4     Ag   0.47876   0.21291   0.21291   1.000
    Ag5     Ag   0.99999   0.27538   0.72466   1.000
    Ag6     Ag   0.72477   0.00001   0.27521   1.000
    Ag7     Ag   0.27544   0.72453   0.40000   1.000
    Ag8     Ag   0.00002   0.72459   0.27536   1.000
    Ag9     Ag   0.27524   0.99999   0.72481   1.000
    Ag10    Ag   0.72456   0.27544   0.99998   1.000
    Ag11    Ag   0.78704   0.78700   0.52107   1.000
    C12     C    0.59137   0.80198   0.32578   1.000
    C13     C    0.80216   0.32588   0.59140   1.000
    C14     C    0.19796   0.40867   0.67416   1.000
    C15     C    0.67422   0.19797   0.40864   1.000
    C16     C    0.40865   0.19799   0.67424   1.000
    C17     C    0.67409   0.40863   0.19793   1.000
    C18     C    0.19785   0.67410   0.40862   1.000
    C19     C    0.80205   0.59131   0.32586   1.000
    C20     C    0.59141   0.32592   0.80210   1.000
    C21     C    0.32579   0.80200   0.59138   1.000
    O22     O    0.64314   0.85147   0.42227   1.000
    O23     O    0.61356   0.82630   0.25138   1.000
    O24     O    0.85168   0.42242   0.64317   1.000
    O25     O    0.82643   0.25145   0.61354   1.000
    O26     O    0.14838   0.35692   0.57768   1.000
    O27     O    0.17367   0.38646   0.74857   1.000
    O28     O    0.57771   0.14851   0.35683   1.000
    O29     O    0.74863   0.17368   0.38640   1.000
    O30     O    0.35687   0.14850   0.57775   1.000
    O31     O    0.38645   0.17367   0.74864   1.000
    O32     O    0.57759   0.35693   0.14831   1.000
    O33     O    0.74851   0.38646   0.17360   1.000
    O34     O    0.14833   0.57756   0.35685   1.000
    O35     O    0.17358   0.74853   0.38648   1.000
    O36     O    0.85163   0.64305   0.42234   1.000
    O37     O    0.82634   0.61352   0.25145   1.000
    O38     O    0.64311   0.42247   0.85176   1.000
    O39     O    0.61352   0.25149   0.82647   1.000
    O40     O    0.42230   0.85146   0.64319   1.000
    O41     O    0.25138   0.82629   0.61358   1.000
    Ts42    Ts   0.53642   0.83328   0.83336   1.000
    Ts43    Ts   0.53928   0.75218   0.75207   1.000
    Ts44    Ts   0.83340   0.53664   0.83343   1.000
    Ts45    Ts   0.75233   0.53950   0.75235   1.000
    Ts46    Ts   0.16671   0.16673   0.46375   1.000
    Ts47    Ts   0.24783   0.24784   0.46088   1.000
    Ts48    Ts   0.16661   0.46334   0.16659   1.000
    Ts49    Ts   0.24768   0.46047   0.24767   1.000
    Ts50    Ts   0.46359   0.16670   0.16666   1.000
    Ts51    Ts   0.46073   0.24780   0.24778   1.000
    Ts52    Ts   0.00113   0.22040   0.70052   1.000
    Ts53    Ts   0.99889   0.29955   0.77964   1.000
    Ts54    Ts   0.70058   0.00112   0.22014   1.000
    Ts55    Ts   0.77971   0.99887   0.29939   1.000
    Ts56    Ts   0.99888   0.77957   0.29950   1.000
    Ts57    Ts   0.00112   0.70042   0.22038   1.000
    Ts58    Ts   0.29942   0.99887   0.77974   1.000
    Ts59    Ts   0.22030   0.00112   0.70063   1.000
    Ts60    Ts   0.77957   0.29960   0.99887   1.000
    Ts61    Ts   0.70043   0.22044   0.00112   1.000
    Ts62    Ts   0.83330   0.83325   0.53627   1.000
    Ts63    Ts   0.75218   0.75213   0.53914   1.000
    Og64    Og   0.56087   0.76878   0.31635   1.000
    Og65    Og   0.76894   0.31644   0.56097   1.000
    Og66    Og   0.23120   0.43912   0.68358   1.000
    Og67    Og   0.68365   0.23117   0.43913   1.000
    Og68    Og   0.43915   0.23119   0.68367   1.000
    Og69    Og   0.68351   0.43907   0.23115   1.000
    Ts70    Ts   0.23107   0.68354   0.43905   1.000
    Og71    Og   0.76882   0.56086   0.31644   1.000
    Og72    Og   0.56099   0.31648   0.76891   1.000
    Og73    Og   0.31636   0.76881   0.56089   1.000
loop_
    _geom_bond_atom_site_label_1
    _geom_bond_atom_site_label_2
    _geom_bond_distance
    _geom_bond_site_symmetry_2
    _ccdc_geom_bond_type
    O32    C17       1.27509      .   S
    O33    C17       1.27288      .   S
    O33    Ag10      2.43583  1_554   S
    O23    Ag6       2.43732  1_565   S
    O23    C12       1.27265      .   S
    O37    Ag8       2.43619  1_655   S
    O37    C19       1.27268      .   S
    Ag6    O29       2.43716      .   S
    Ag8    O35       2.43657      .   S
    C12    O22       1.27517      .   S
    C19    O36       1.27512      .   S
    O28    C15       1.27515      .   S
    O34    C18       1.27512      .   S
    O29    C15       1.27291      .   S
    O35    C18       1.27276      .   S
    C18    Ag7       1.19881      .   S
    O26    C14       1.27513      .   S
    O30    C16       1.27518      .   S
    C21    O41       1.27269      .   S
    C21    O40       1.27515      .   S
    C13    O25       1.27276      .   S
    C13    O24       1.27512      .   S
    O25    Ag5       2.43661      .   S
    O41    Ag9       2.43776      .   S
    C14    O27       1.27273      .   S
    C16    O31       1.27268      .   S
    Ag5    O27       2.43617  1_655   S
    Ag9    O31       2.43699  1_565   S
    C20    O39       1.27319      .   S
    C20    O38       1.27524      .   S
    O39    Ag10      2.43579      .   S
    O34    Ag7       2.18982      .   S
    O35    Ag7       1.53834      .   S
    Ag0    Ts42      0.73374      .   S
    Ag0    Ts43      0.74618      .   S
    Ag1    Ts44      0.73361      .   S
    Ag1    Ts45      0.74467      .   S
    Ag2    Ts46      0.73379      .   S
    Ag2    Ts47      0.74492      .   S
    Ag3    Ts48      0.73361      .   S
    Ag3    Ts49      0.74467      .   S
    Ag4    Ts50      0.73374      .   S
    Ag4    Ts51      0.74481      .   S
    Ag5    Ts52      0.77065  1_655   S
    Ag5    Ts53      0.77069      .   S
    Ag6    Ts54      0.77218      .   S
    Ag6    Ts55      0.77057  1_545   S
    Ag8    Ts56      0.77065  1_455   S
    Ag8    Ts57      0.77068      .   S
    Ag9    Ts58      0.77046      .   S
    Ag9    Ts59      0.77049  1_565   S
    Ag10   Ts60      0.77072      .   S
    Ag10   Ts61      0.77073  1_556   S
    Ag11   Ts62      0.73378      .   S
    Ag11   Ts63      0.74491      .   S
    C12    Og64      0.50876      .   S
    C13    Og65      0.50877      .   S
    C14    Og66      0.50873      .   S
    C15    Og67      0.50873      .   S
    C16    Og68      0.50876      .   S
    C17    Og69      0.50871      .   S
    C18    Ts70      0.50873      .   S
    C19    Og71      0.50873      .   S
    C20    Og72      0.50848      .   S
    C21    Og73      0.50878      .   S
