# CIF file generated by openbabel 2.4.90, see http://openbabel.sf.net
data_I
_chemical_name_common ''
_cell_length_a 14.131
_cell_length_b 14.13
_cell_length_c 14.133
_cell_angle_alpha 104.811
_cell_angle_beta 104.76
_cell_angle_gamma 104.833
_space_group_name_H-M_alt 'P 1'
_space_group_name_Hall 'P 1'
loop_
    _symmetry_equiv_pos_as_xyz
    x,y,z
loop_
    _atom_site_label
    _atom_site_type_symbol
    _atom_site_fract_x
    _atom_site_fract_y
    _atom_site_fract_z
    _atom_site_occupancy
    C0      C    0.78704   0.78700   0.52107   1.000
    C1      C    0.52125   0.78706   0.78711   1.000
    C2      C    0.78721   0.52154   0.78723   1.000
    C3      C    0.21297   0.21297   0.47895   1.000
    C4      C    0.21280   0.47843   0.21279   1.000
    C5      C    0.47876   0.21291   0.21291   1.000
    C6      C    0.99999   0.27538   0.72466   1.000
    C7      C    0.72477   0.00001   0.27521   1.000
    C8      C    0.27544   0.72453   0.40000   1.000
    C9      C    0.00002   0.72459   0.27536   1.000
    C10     C    0.27524   0.99999   0.72481   1.000
    C11     C    0.72456   0.27544   0.99998   1.000
    C12     C    0.53066   0.63787   0.29260   1.000
    C13     C    0.82148   0.10648   0.57437   1.000
    C14     C    0.76361   0.97101   0.50759   1.000
    C15     C    0.80949   0.60198   0.52188   1.000
    C16     C    0.17538   0.25420   0.74485   1.000
    C17     C    0.29271   0.53096   0.63802   1.000
    C18     C    0.57438   0.82125   0.10644   1.000
    C19     C    0.50768   0.76337   0.97109   1.000
    C20     C    0.52182   0.80925   0.60190   1.000
    C21     C    0.74477   0.17536   0.25408   1.000
    C22     C    0.63804   0.29244   0.53101   1.000
    C23     C    0.10650   0.57440   0.82140   1.000
    C24     C    0.97107   0.50777   0.76353   1.000
    C25     C    0.60209   0.52197   0.80956   1.000
    C26     C    0.25413   0.74449   0.17527   1.000
    C27     C    0.36210   0.46913   0.70736   1.000
    C28     C    0.89354   0.17866   0.42563   1.000
    C29     C    0.02893   0.23654   0.49240   1.000
    C30     C    0.39808   0.19074   0.47820   1.000
    C31     C    0.74586   0.82458   0.25515   1.000
    C32     C    0.46889   0.70744   0.36100   1.000
    C33     C    0.17873   0.42560   0.89355   1.000
    C34     C    0.23660   0.49221   0.02892   1.000
    C35     C    0.19049   0.47802   0.39794   1.000
    C36     C    0.82473   0.25547   0.74593   1.000
    C37     C    0.70746   0.36209   0.46930   1.000
    C38     C    0.42563   0.89349   0.17850   1.000
    C39     C    0.49234   0.02897   0.23637   1.000
    C40     C    0.47809   0.39796   0.19049   1.000
    C41     C    0.25528   0.74579   0.82470   1.000
    C42     C    0.46936   0.36211   0.70740   1.000
    C43     C    0.17853   0.89349   0.42565   1.000
    C44     C    0.23640   0.02896   0.49243   1.000
    C45     C    0.19053   0.39799   0.47814   1.000
    C46     C    0.82463   0.74578   0.25517   1.000
    C47     C    0.70730   0.46901   0.36200   1.000
    C48     C    0.42563   0.17872   0.89358   1.000
    C49     C    0.49233   0.23661   0.02893   1.000
    C50     C    0.47819   0.19073   0.39807   1.000
    C51     C    0.25525   0.82462   0.74590   1.000
    C52     C    0.36197   0.70755   0.46900   1.000
    C53     C    0.89351   0.42558   0.17862   1.000
    C54     C    0.02894   0.49220   0.23649   1.000
    C55     C    0.39792   0.47801   0.19046   1.000
    C56     C    0.74588   0.25548   0.82475   1.000
    C57     C    0.63792   0.53084   0.29267   1.000
    C58     C    0.10647   0.82132   0.57439   1.000
    C59     C    0.97108   0.76343   0.50760   1.000
    C60     C    0.60193   0.80924   0.52180   1.000
    C61     C    0.25415   0.17539   0.74487   1.000
    C62     C    0.53111   0.29253   0.63812   1.000
    C63     C    0.82129   0.57437   0.10640   1.000
    C64     C    0.76342   0.50776   0.97110   1.000
    C65     C    0.80952   0.52196   0.60200   1.000
    C66     C    0.17529   0.74450   0.25409   1.000
    C67     C    0.29256   0.63788   0.53066   1.000
    C68     C    0.57438   0.10649   0.82152   1.000
    C69     C    0.50767   0.97100   0.76365   1.000
    C70     C    0.52192   0.60201   0.80953   1.000
    C71     C    0.74474   0.25418   0.17530   1.000
    C72     C    0.91947   0.02331   0.59460   1.000
    C73     C    0.59137   0.80198   0.32578   1.000
    C74     C    0.59464   0.91933   0.02330   1.000
    C75     C    0.32592   0.59134   0.80200   1.000
    C76     C    0.02332   0.59465   0.91945   1.000
    C77     C    0.80216   0.32588   0.59140   1.000
    C78     C    0.97669   0.08060   0.40540   1.000
    C79     C    0.19796   0.40867   0.67416   1.000
    C80     C    0.08064   0.40534   0.97671   1.000
    C81     C    0.40859   0.67405   0.19780   1.000
    C82     C    0.40538   0.97667   0.08052   1.000
    C83     C    0.67422   0.19797   0.40864   1.000
    C84     C    0.08054   0.97667   0.40542   1.000
    C85     C    0.40865   0.19799   0.67424   1.000
    C86     C    0.40537   0.08064   0.97672   1.000
    C87     C    0.67409   0.40863   0.19793   1.000
    C88     C    0.97669   0.40533   0.08057   1.000
    C89     C    0.19785   0.67410   0.40862   1.000
    C90     C    0.02332   0.91937   0.59462   1.000
    C91     C    0.80205   0.59131   0.32586   1.000
    C92     C    0.91937   0.59464   0.02331   1.000
    C93     C    0.59141   0.32592   0.80210   1.000
    C94     C    0.59463   0.02330   0.91950   1.000
    C95     C    0.32579   0.80200   0.59138   1.000
    C96     C    0.09706   0.09707   0.67923   1.000
    C97     C    0.67916   0.09705   0.09703   1.000
    C98     C    0.09703   0.67899   0.09700   1.000
    C99     C    0.90295   0.90290   0.32079   1.000
    C100    C    0.90298   0.32099   0.90000   1.000
    C101    C    0.32086   0.90292   0.90299   1.000
    C102    C    0.49987   0.70238   0.29749   1.000
    C103    C    0.29767   0.50002   0.70242   1.000
    C104    C    0.70251   0.29755   0.50010   1.000
    C105    C    0.50014   0.29760   0.70253   1.000
    C106    C    0.70235   0.49995   0.29760   1.000
    C107    C    0.29751   0.70242   0.49990   1.000
    C108    C    0.71556   0.61176   0.61179   1.000
    C109    C    0.61173   0.71539   0.61172   1.000
    C110    C    0.61181   0.61178   0.71558   1.000
    C111    C    0.38828   0.28459   0.38830   1.000
    C112    C    0.28446   0.38821   0.38823   1.000
    C113    C    0.38820   0.38819   0.28444   1.000
    C114    C    0.82569   0.03318   0.56356   1.000
    C115    C    0.00342   0.11044   0.65223   1.000
    C116    C    0.56361   0.82549   0.03317   1.000
    C117    C    0.65221   0.00334   0.11000   1.000
    C118    C    0.03321   0.56369   0.82564   1.000
    C119    C    0.11043   0.65207   0.00336   1.000
    C120    C    0.96682   0.17442   0.43645   1.000
    C121    C    0.88959   0.99660   0.34776   1.000
    C122    C    0.17448   0.43630   0.96682   1.000
    C123    C    0.99668   0.34790   0.88961   1.000
    C124    C    0.43639   0.96679   0.17400   1.000
    C125    C    0.34784   0.88953   0.99662   1.000
    C126    C    0.17432   0.96680   0.43646   1.000
    C127    C    0.99659   0.88953   0.34779   1.000
    C128    C    0.43640   0.17448   0.96685   1.000
    C129    C    0.34780   0.99663   0.88960   1.000
    C130    C    0.96680   0.43628   0.17438   1.000
    C131    C    0.88958   0.34790   0.99666   1.000
    C132    C    0.03319   0.82555   0.56357   1.000
    C133    C    0.11042   0.00338   0.65226   1.000
    C134    C    0.82553   0.56367   0.03300   1.000
    C135    C    0.00333   0.65208   0.11041   1.000
    C136    C    0.56362   0.03318   0.82570   1.000
    C137    C    0.65217   0.11044   0.00340   1.000
    C138    C    0.92582   0.92574   0.56666   1.000
    C139    C    0.68246   0.68238   0.57529   1.000
    C140    C    0.18175   0.18179   0.73618   1.000
    C141    C    0.56674   0.92572   0.92585   1.000
    C142    C    0.57533   0.68242   0.68200   1.000
    C143    C    0.73606   0.18177   0.18170   1.000
    C144    C    0.92577   0.56683   0.92583   1.000
    C145    C    0.68258   0.57542   0.68258   1.000
    C146    C    0.18173   0.73577   0.18170   1.000
    C147    C    0.07419   0.07424   0.43336   1.000
    C148    C    0.31755   0.31759   0.42473   1.000
    C149    C    0.81825   0.81819   0.26384   1.000
    C150    C    0.07424   0.43314   0.07419   1.000
    C151    C    0.31743   0.42456   0.31744   1.000
    C152    C    0.81828   0.26421   0.81832   1.000
    C153    C    0.43327   0.07426   0.07417   1.000
    C154    C    0.42468   0.31756   0.31752   1.000
    C155    C    0.26395   0.81820   0.81832   1.000
    C156    C    0.78398   0.57689   0.57690   1.000
    C157    C    0.57677   0.78370   0.57676   1.000
    C158    C    0.57692   0.57690   0.78401   1.000
    C159    C    0.42325   0.21627   0.42326   1.000
    C160    C    0.21603   0.42309   0.42312   1.000
    C161    C    0.42309   0.42307   0.21601   1.000
    C162    C    0.64314   0.85147   0.42227   1.000
    C163    C    0.61356   0.82630   0.25138   1.000
    C164    C    0.42242   0.64305   0.85171   1.000
    C165    C    0.25150   0.61352   0.82639   1.000
    C166    C    0.85168   0.42242   0.64317   1.000
    C167    C    0.82643   0.25145   0.61354   1.000
    C168    C    0.14838   0.35692   0.57768   1.000
    C169    C    0.17367   0.38646   0.74857   1.000
    C170    C    0.35690   0.57750   0.14825   1.000
    C171    C    0.38649   0.74848   0.17355   1.000
    C172    C    0.57771   0.14851   0.35683   1.000
    C173    C    0.74863   0.17368   0.38640   1.000
    C174    C    0.35687   0.14850   0.57775   1.000
    C175    C    0.38645   0.17367   0.74864   1.000
    C176    C    0.57759   0.35693   0.14831   1.000
    C177    C    0.74851   0.38646   0.17360   1.000
    C178    C    0.14833   0.57756   0.35685   1.000
    C179    C    0.17358   0.74853   0.38648   1.000
    C180    C    0.85163   0.64305   0.42234   1.000
    C181    C    0.82634   0.61352   0.25145   1.000
    C182    C    0.64311   0.42247   0.85176   1.000
    C183    C    0.61352   0.25149   0.82647   1.000
    C184    C    0.42230   0.85146   0.64319   1.000
    C185    C    0.25138   0.82629   0.61358   1.000
    O186    O    0.10373   0.66553   0.05018   1.000
    O187    O    0.06688   0.62336   0.96140   1.000
    O188    O    0.66566   0.10375   0.05021   1.000
    O189    O    0.62340   0.06687   0.96145   1.000
    O190    O    0.68837   0.19294   0.00169   1.000
    O191    O    0.57913   0.87241   0.02823   1.000
    O192    O    0.62343   0.96134   0.06665   1.000
    O193    O    0.58069   0.92252   0.97457   1.000
    O194    O    0.87245   0.57916   0.02815   1.000
    O195    O    0.96135   0.62336   0.06686   1.000
    O196    O    0.92257   0.58074   0.97457   1.000
    O197    O    0.20554   0.46425   0.99787   1.000
    O198    O    0.46437   0.20554   0.99789   1.000
    O199    O    0.82341   0.56902   0.06970   1.000
    O200    O    0.79447   0.53572   0.00205   1.000
    O201    O    0.56900   0.82337   0.06980   1.000
    O202    O    0.53565   0.79443   0.00213   1.000
    O203    O    0.41932   0.02547   0.07734   1.000
    O204    O    0.45601   0.14359   0.14354   1.000
    O205    O    0.41932   0.07745   0.02545   1.000
    O206    O    0.02546   0.41923   0.07738   1.000
    O207    O    0.14352   0.45579   0.14349   1.000
    O208    O    0.07744   0.41924   0.02545   1.000
    O209    O    0.42089   0.97173   0.12726   1.000
    O210    O    0.37661   0.93310   0.03857   1.000
    O211    O    0.97174   0.42080   0.12747   1.000
    O212    O    0.93313   0.37661   0.03861   1.000
    O213    O    0.05018   0.66553   0.10370   1.000
    O214    O    0.13938   0.70738   0.13935   1.000
    O215    O    0.66568   0.05020   0.10351   1.000
    O216    O    0.70761   0.13941   0.13936   1.000
    O217    O    0.68849   0.00168   0.19260   1.000
    O218    O    0.00168   0.68833   0.19288   1.000
    O219    O    0.38275   0.62578   0.17302   1.000
    O220    O    0.62584   0.38278   0.17312   1.000
    O221    O    0.39754   0.71127   0.18567   1.000
    O222    O    0.71130   0.39755   0.18576   1.000
    O223    O    0.73654   0.33095   0.08679   1.000
    O224    O    0.43101   0.93014   0.17625   1.000
    O225    O    0.46437   0.99788   0.20518   1.000
    O226    O    0.93015   0.43093   0.17650   1.000
    O227    O    0.99787   0.46424   0.20543   1.000
    O228    O    0.21793   0.74013   0.17848   1.000
    O229    O    0.74040   0.21798   0.17850   1.000
    O230    O    0.74042   0.17856   0.21789   1.000
    O231    O    0.17851   0.74014   0.21789   1.000
    O232    O    0.41051   0.45054   0.20323   1.000
    O233    O    0.45059   0.41052   0.20325   1.000
    O234    O    0.45423   0.68821   0.24764   1.000
    O235    O    0.68822   0.45429   0.24776   1.000
    O236    O    0.26512   0.45150   0.26511   1.000
    O237    O    0.45172   0.26524   0.26521   1.000
    O238    O    0.40565   0.40563   0.25022   1.000
    O239    O    0.66916   0.91316   0.26329   1.000
    O240    O    0.60246   0.81414   0.28858   1.000
    O241    O    0.91318   0.66905   0.26340   1.000
    O242    O    0.81419   0.60241   0.28865   1.000
    O243    O    0.78206   0.82139   0.25949   1.000
    O244    O    0.82144   0.78198   0.25950   1.000
    O245    O    0.86060   0.86055   0.29231   1.000
    O246    O    0.80718   0.99830   0.31148   1.000
    O247    O    0.73670   0.08685   0.33081   1.000
    O248    O    0.99831   0.80706   0.31157   1.000
    O249    O    0.08680   0.73656   0.33092   1.000
    O250    O    0.35282   0.40638   0.30094   1.000
    O251    O    0.40644   0.35288   0.30098   1.000
    O252    O    0.51526   0.67013   0.29504   1.000
    O253    O    0.67013   0.51540   0.29513   1.000
    O254    O    0.54562   0.75218   0.31163   1.000
    O255    O    0.48438   0.70491   0.32924   1.000
    O256    O    0.75220   0.54563   0.31173   1.000
    O257    O    0.70483   0.48448   0.32980   1.000
    O258    O    0.30094   0.40639   0.35283   1.000
    O259    O    0.40648   0.30107   0.35291   1.000
    O260    O    0.89627   0.94975   0.33427   1.000
    O261    O    0.94977   0.89622   0.33429   1.000
    O262    O    0.61725   0.82673   0.37402   1.000
    O263    O    0.82684   0.61718   0.37410   1.000
    O264    O    0.93314   0.03860   0.37658   1.000
    O265    O    0.03857   0.93310   0.37660   1.000
    O266    O    0.62597   0.17324   0.38273   1.000
    O267    O    0.17309   0.62583   0.38273   1.000
    O268    O    0.71143   0.18583   0.39752   1.000
    O269    O    0.18572   0.71131   0.39755   1.000
    O270    O    0.25024   0.40565   0.40567   1.000
    O271    O    0.30100   0.35290   0.40648   1.000
    O272    O    0.40577   0.25043   0.40578   1.000
    O273    O    0.35292   0.30109   0.40651   1.000
    O274    O    0.20326   0.45055   0.41053   1.000
    O275    O    0.45072   0.20350   0.41066   1.000
    O276    O    0.02544   0.07742   0.41938   1.000
    O277    O    0.97176   0.12751   0.42092   1.000
    O278    O    0.07736   0.02545   0.41939   1.000
    O279    O    0.12743   0.97173   0.42094   1.000
    O280    O    0.24768   0.68826   0.45426   1.000
    O281    O    0.23665   0.69931   0.40431   1.000
    O282    O    0.68837   0.24776   0.45437   1.000
    O283    O    0.20328   0.41054   0.45063   1.000
    O284    O    0.41066   0.20350   0.45073   1.000
    O285    O    0.26526   0.26528   0.45184   1.000
    O286    O    0.93018   0.17654   0.43104   1.000
    O287    O    0.17643   0.93014   0.43105   1.000
    O288    O    0.14358   0.14360   0.45615   1.000
    O289    O    0.99788   0.20548   0.46442   1.000
    O290    O    0.20536   0.99788   0.46444   1.000
    O291    O    0.32974   0.70499   0.48445   1.000
    O292    O    0.70499   0.32982   0.48470   1.000
    O293    O    0.29503   0.67015   0.51528   1.000
    O294    O    0.31165   0.75221   0.54564   1.000
    O295    O    0.67028   0.29500   0.51555   1.000
    O296    O    0.75233   0.31172   0.54575   1.000
    O297    O    0.79465   0.00209   0.53557   1.000
    O298    O    0.00213   0.79449   0.53558   1.000
    O299    O    0.85643   0.85637   0.54386   1.000
    O300    O    0.73475   0.73469   0.54818   1.000
    O301    O    0.58935   0.79647   0.54928   1.000
    O302    O    0.79673   0.58943   0.54939   1.000
    O303    O    0.82358   0.06983   0.56896   1.000
    O304    O    0.87258   0.02824   0.57908   1.000
    O305    O    0.06983   0.82343   0.56898   1.000
    O306    O    0.02825   0.87246   0.57909   1.000
    O307    O    0.92265   0.97452   0.58063   1.000
    O308    O    0.97457   0.92255   0.58064   1.000
    O309    O    0.64709   0.69889   0.59350   1.000
    O310    O    0.69901   0.64707   0.59354   1.000
    O311    O    0.54929   0.79648   0.58933   1.000
    O312    O    0.59425   0.74955   0.59424   1.000
    O313    O    0.79675   0.54942   0.58945   1.000
    O314    O    0.74977   0.59433   0.59434   1.000
    O315    O    0.17317   0.38280   0.62592   1.000
    O316    O    0.38276   0.17325   0.62599   1.000
    O317    O    0.28858   0.81415   0.60248   1.000
    O318    O    0.37404   0.82673   0.61728   1.000
    O319    O    0.81429   0.28866   0.60247   1.000
    O320    O    0.82692   0.37415   0.61728   1.000
    O321    O    0.96144   0.06688   0.62341   1.000
    O322    O    0.06687   0.96137   0.62344   1.000
    O323    O    0.59353   0.69890   0.64686   1.000
    O324    O    0.69907   0.59359   0.64718   1.000
    O325    O    0.91321   0.26341   0.66910   1.000
    O326    O    0.26331   0.91314   0.66919   1.000
    O327    O    0.29519   0.51549   0.67022   1.000
    O328    O    0.51562   0.29506   0.67032   1.000
    O329    O    0.05024   0.10376   0.66573   1.000
    O330    O    0.00170   0.19291   0.68844   1.000
    O331    O    0.10374   0.05022   0.66574   1.000
    O332    O    0.19283   0.00168   0.68853   1.000
    O333    O    0.24781   0.45435   0.68829   1.000
    O334    O    0.18582   0.39756   0.71136   1.000
    O335    O    0.45439   0.24780   0.68838   1.000
    O336    O    0.39755   0.18583   0.71144   1.000
    O337    O    0.13941   0.13943   0.70770   1.000
    O338    O    0.59357   0.64710   0.69879   1.000
    O339    O    0.54829   0.73474   0.73455   1.000
    O340    O    0.64719   0.59360   0.69908   1.000
    O341    O    0.73490   0.54848   0.73490   1.000
    O342    O    0.32988   0.48458   0.70489   1.000
    O343    O    0.31179   0.54568   0.75221   1.000
    O344    O    0.48475   0.32985   0.70496   1.000
    O345    O    0.54578   0.31176   0.75231   1.000
    O346    O    0.59436   0.59434   0.74979   1.000
    O347    O    0.08683   0.33092   0.73661   1.000
    O348    O    0.99834   0.31164   0.80713   1.000
    O349    O    0.33084   0.08683   0.73672   1.000
    O350    O    0.31152   0.99831   0.80720   1.000
    O351    O    0.17857   0.21799   0.74051   1.000
    O352    O    0.21795   0.17859   0.74052   1.000
    O353    O    0.25960   0.82141   0.78211   1.000
    O354    O    0.82151   0.25984   0.78212   1.000
    O355    O    0.00214   0.53573   0.79458   1.000
    O356    O    0.53564   0.00209   0.79467   1.000
    O357    O    0.54942   0.58946   0.79677   1.000
    O358    O    0.58950   0.54943   0.79678   1.000
    O359    O    0.54400   0.85639   0.85648   1.000
    O360    O    0.85649   0.54419   0.85653   1.000
    O361    O    0.28871   0.60243   0.81419   1.000
    O362    O    0.37417   0.61719   0.82685   1.000
    O363    O    0.60247   0.28871   0.81428   1.000
    O364    O    0.61726   0.37419   0.82693   1.000
    O365    O    0.78208   0.25984   0.82153   1.000
    O366    O    0.86063   0.29260   0.85916   1.000
    O367    O    0.25961   0.78200   0.82151   1.000
    O368    O    0.29240   0.86056   0.86065   1.000
    O369    O    0.06986   0.56904   0.82352   1.000
    O370    O    0.56900   0.06983   0.82361   1.000
    O371    O    0.02827   0.57917   0.87254   1.000
    O372    O    0.57912   0.02824   0.87260   1.000
    O373    O    0.66904   0.26347   0.91322   1.000
    O374    O    0.33433   0.94978   0.89629   1.000
    O375    O    0.37659   0.03864   0.93316   1.000
    O376    O    0.94983   0.33444   0.89481   1.000
    O377    O    0.03866   0.37662   0.93316   1.000
    O378    O    0.17660   0.43095   0.93018   1.000
    O379    O    0.43101   0.17660   0.93021   1.000
    O380    O    0.89628   0.33444   0.94833   1.000
    O381    O    0.33435   0.89623   0.94980   1.000
    O382    O    0.97455   0.58074   0.92264   1.000
    O383    O    0.58069   0.97451   0.92267   1.000
    O384    O    0.12756   0.42082   0.97176   1.000
    O385    O    0.42088   0.12756   0.97178   1.000
    O386    O    0.80707   0.31167   0.99832   1.000
    O387    O    0.21189   0.65104   0.37842   1.000
    O388    O    0.22451   0.73653   0.39324   1.000
loop_
    _geom_bond_atom_site_label_1
    _geom_bond_atom_site_label_2
    _geom_bond_distance
    _geom_bond_site_symmetry_2
    _ccdc_geom_bond_type
    C119   O186      0.67808      .   S
    C98    O186      0.67808      .   S
    C119   O187      0.67691  1_554   S
    C76    O187      0.67691      .   S
    C137   O188      0.67824      .   S
    C97    O188      0.67824      .   S
    C137   O189      0.67692  1_554   S
    C94    O189      0.67692      .   S
    C137   O190      1.15610      .   S
    C11    O190      1.15610  1_556   S
    C74    O191      0.67042      .   S
    C116   O191      0.67042      .   S
    C74    O192      0.67572      .   S
    C117   O192      0.67572  1_545   S
    C74    O193      0.68291  1_554   S
    C141   O193      0.68291      .   S
    C92    O194      0.66982      .   S
    C134   O194      0.66982      .   S
    C92    O195      0.67707      .   S
    C135   O195      0.67707  1_455   S
    C92    O196      0.68293  1_554   S
    C144   O196      0.68293      .   S
    C34    O197      0.51546  1_554   S
    C122   O197      0.51546      .   S
    C49    O198      0.51545  1_554   S
    C128   O198      0.51545      .   S
    C134   O199      0.51448      .   S
    C63    O199      0.51448      .   S
    C134   O200      0.51484      .   S
    C64    O200      0.51484  1_556   S
    C116   O201      0.51360      .   S
    C18    O201      0.51360      .   S
    C116   O202      0.51545      .   S
    C19    O202      0.51545  1_556   S
    C153   O203      0.68332      .   S
    C82    O203      0.68332  1_565   S
    C153   O204      1.10061      .   S
    C5     O204      1.10061      .   S
    C153   O205      0.68292      .   S
    C86    O205      0.68292  1_556   S
    C150   O206      0.68314      .   S
    C88    O206      0.68314  1_655   S
    C150   O207      1.10041      .   S
    C4     O207      1.10041      .   S
    C150   O208      0.68293      .   S
    C80    O208      0.68293  1_556   S
    C82    O209      0.66850      .   S
    C124   O209      0.66850      .   S
    C82    O210      0.67692      .   S
    C125   O210      0.67692  1_556   S
    C88    O211      0.67043      .   S
    C130   O211      0.67043      .   S
    C88    O212      0.67691      .   S
    C131   O212      0.67691  1_556   S
    C98    O213      0.67834      .   S
    C135   O213      0.67834      .   S
    C98    O214      0.67015      .   S
    C146   O214      0.67015      .   S
    C97    O215      0.67700      .   S
    C117   O215      0.67700      .   S
    C97    O216      0.67007      .   S
    C143   O216      0.67007      .   S
    C117   O217      1.15827      .   S
    C7     O217      1.15827      .   S
    C135   O218      1.15603      .   S
    C9     O218      1.15603      .   S
    C170   O219      0.63752      .   S
    C81    O219      0.63752      .   S
    C176   O220      0.63754      .   S
    C87    O220      0.63754      .   S
    C171   O221      0.63624      .   S
    C81    O221      0.63624      .   S
    C177   O222      0.63644      .   S
    C87    O222      0.63644      .   S
    C177   O223      1.21792      .   S
    C11    O223      1.21792  1_556   S
    C124   O224      0.51432      .   S
    C38    O224      0.51432      .   S
    C124   O225      0.51655      .   S
    C39    O225      0.51655  1_545   S
    C130   O226      0.51359      .   S
    C53    O226      0.51359      .   S
    C130   O227      0.51559      .   S
    C54    O227      0.51559  1_455   S
    C26    O228      0.51447      .   S
    C146   O228      0.51447      .   S
    C71    O229      0.51451      .   S
    C143   O229      0.51451      .   S
    C143   O230      0.51447      .   S
    C21    O230      0.51447      .   S
    C146   O231      0.51451      .   S
    C66    O231      0.51451      .   S
    C55    O232      0.51927      .   S
    C161   O232      0.51927      .   S
    C40    O233      0.51927      .   S
    C161   O233      0.51927      .   S
    C81    O234      0.76326      .   S
    C102   O234      0.76326      .   S
    C87    O235      0.76306      .   S
    C106   O235      0.76306      .   S
    C4     O236      1.11700      .   S
    C151   O236      1.11700      .   S
    C5     O237      1.11722      .   S
    C154   O237      1.11722      .   S
    C161   O238      0.66775      .   S
    C113   O238      0.66775      .   S
    C163   O239      1.21866      .   S
    C7     O239      1.21866  1_545   S
    C163   O240      0.63632      .   S
    C73    O240      0.63632      .   S
    C181   O241      1.21809      .   S
    C9     O241      1.21809  1_455   S
    C181   O242      0.63634      .   S
    C91    O242      0.63634      .   S
    C31    O243      0.51448      .   S
    C149   O243      0.51448      .   S
    C46    O244      0.51449      .   S
    C149   O244      0.51449      .   S
    C149   O245      0.67009      .   S
    C99    O245      0.67009      .   S
    C7     O246      1.15586  1_545   S
    C121   O246      1.15586      .   S
    C7     O247      1.21858      .   S
    C173   O247      1.21858      .   S
    C9     O248      1.15598  1_455   S
    C127   O248      1.15598      .   S
    C9     O249      1.21829      .   S
    C179   O249      1.21829      .   S
    C113   O250      0.68187      .   S
    C151   O250      0.68187      .   S
    C113   O251      0.68185      .   S
    C154   O251      0.68185      .   S
    C12    O252      0.55023      .   S
    C102   O252      0.55023      .   S
    C57    O253      0.55021      .   S
    C106   O253      0.55021      .   S
    C102   O254      0.76314      .   S
    C73    O254      0.76314      .   S
    C102   O255      0.54447      .   S
    C32    O255      0.54447      .   S
    C106   O256      0.76310      .   S
    C91    O256      0.76310      .   S
    C106   O257      0.55026      .   S
    C47    O257      0.55026      .   S
    C151   O258      0.68184      .   S
    C112   O258      0.68184      .   S
    C154   O259      0.68189      .   S
    C111   O259      0.68189      .   S
    C99    O260      0.67827      .   S
    C121   O260      0.67827      .   S
    C99    O261      0.67826      .   S
    C127   O261      0.67826      .   S
    C73    O262      0.63758      .   S
    C162   O262      0.63758      .   S
    C91    O263      0.63756      .   S
    C180   O263      0.63756      .   S
    C121   O264      0.67718  1_565   S
    C78    O264      0.67718      .   S
    C127   O265      0.67708  1_655   S
    C84    O265      0.67708      .   S
    C172   O266      0.63758      .   S
    C83    O266      0.63758      .   S
    C178   O267      0.63756      .   S
    C89    O267      0.63756      .   S
    C173   O268      0.63646      .   S
    C83    O268      0.63646      .   S
    C179   O269      0.63638      .   S
    C89    O269      0.63638      .   S
    C112   O270      0.66775      .   S
    C160   O270      0.66775      .   S
    C112   O271      0.68186      .   S
    C148   O271      0.68186      .   S
    C111   O272      0.66777      .   S
    C159   O272      0.66777      .   S
    C111   O273      0.68187      .   S
    C148   O273      0.68187      .   S
    C35    O274      0.51925      .   S
    C160   O274      0.51925      .   S
    C50    O275      0.51924      .   S
    C159   O275      0.51924      .   S
    C78    O276      0.68312  1_655   S
    C147   O276      0.68312      .   S
    C78    O277      0.67042      .   S
    C120   O277      0.67042      .   S
    C84    O278      0.68333  1_565   S
    C147   O278      0.68333      .   S
    C84    O279      0.67042      .   S
    C126   O279      0.67042      .   S
    C89    O280      0.76309      .   S
    C107   O280      0.76309      .   S
    C89    O281      0.59940      .   S
    C8     O281      0.59940      .   S
    C83    O282      0.76310      .   S
    C104   O282      0.76310      .   S
    C160   O283      0.51928      .   S
    C45    O283      0.51928      .   S
    C159   O284      0.51909      .   S
    C30    O284      0.51909      .   S
    C148   O285      1.11738      .   S
    C3     O285      1.11738      .   S
    C28    O286      0.51359      .   S
    C120   O286      0.51359      .   S
    C43    O287      0.51358      .   S
    C126   O287      0.51358      .   S
    C147   O288      1.10068      .   S
    C3     O288      1.10068      .   S
    C120   O289      0.51553      .   S
    C29    O289      0.51553  1_455   S
    C126   O290      0.51563      .   S
    C44    O290      0.51563  1_545   S
    C52    O291      0.55022      .   S
    C107   O291      0.55022      .   S
    C37    O292      0.55040      .   S
    C104   O292      0.55040      .   S
    C107   O293      0.55025      .   S
    C67    O293      0.55025      .   S
    C107   O294      0.76317      .   S
    C95    O294      0.76317      .   S
    C104   O295      0.55027      .   S
    C22    O295      0.55027      .   S
    C104   O296      0.76316      .   S
    C77    O296      0.76316      .   S
    C14    O297      0.51563  1_565   S
    C114   O297      0.51563      .   S
    C59    O298      0.51557  1_655   S
    C132   O298      0.51557      .   S
    C0     O299      1.10067      .   S
    C138   O299      1.10067      .   S
    C0     O300      1.11737      .   S
    C139   O300      1.11737      .   S
    C60    O301      0.51922      .   S
    C157   O301      0.51922      .   S
    C15    O302      0.51928      .   S
    C156   O302      0.51928      .   S
    C114   O303      0.51359      .   S
    C13    O303      0.51359      .   S
    C114   O304      0.67041      .   S
    C72    O304      0.67041      .   S
    C132   O305      0.51360      .   S
    C58    O305      0.51360      .   S
    C132   O306      0.67041      .   S
    C90    O306      0.67041      .   S
    C138   O307      0.68333      .   S
    C72    O307      0.68333  1_545   S
    C138   O308      0.68313      .   S
    C90    O308      0.68313  1_455   S
    C139   O309      0.68187      .   S
    C109   O309      0.68187      .   S
    C139   O310      0.68186      .   S
    C108   O310      0.68186      .   S
    C157   O311      0.51909      .   S
    C20    O311      0.51909      .   S
    C157   O312      0.66776      .   S
    C109   O312      0.66776      .   S
    C156   O313      0.51900      .   S
    C65    O313      0.51900      .   S
    C156   O314      0.66775      .   S
    C108   O314      0.66775      .   S
    C168   O315      0.63757      .   S
    C79    O315      0.63757      .   S
    C174   O316      0.63759      .   S
    C85    O316      0.63759      .   S
    C95    O317      0.63635      .   S
    C185   O317      0.63635      .   S
    C95    O318      0.63758      .   S
    C184   O318      0.63758      .   S
    C77    O319      0.63638      .   S
    C167   O319      0.63638      .   S
    C77    O320      0.63756      .   S
    C166   O320      0.63756      .   S
    C72    O321      0.67708      .   S
    C115   O321      0.67708  1_455   S
    C90    O322      0.67718      .   S
    C133   O322      0.67718  1_545   S
    C109   O323      0.67865      .   S
    C142   O323      0.67865      .   S
    C108   O324      0.68185      .   S
    C145   O324      0.68185      .   S
    C167   O325      1.21830      .   S
    C6     O325      1.21830      .   S
    C185   O326      1.21888      .   S
    C10    O326      1.21888      .   S
    C17    O327      0.55024      .   S
    C103   O327      0.55024      .   S
    C62    O328      0.55024      .   S
    C105   O328      0.55024      .   S
    C115   O329      0.67826      .   S
    C96    O329      0.67826      .   S
    C115   O330      1.15597      .   S
    C6     O330      1.15597  1_655   S
    C133   O331      0.67827      .   S
    C96    O331      0.67827      .   S
    C133   O332      1.15574      .   S
    C10    O332      1.15574  1_565   S
    C79    O333      0.76309      .   S
    C103   O333      0.76309      .   S
    C79    O334      0.63636      .   S
    C169   O334      0.63636      .   S
    C85    O335      0.76314      .   S
    C105   O335      0.76314      .   S
    C85    O336      0.63634      .   S
    C175   O336      0.63634      .   S
    C96    O337      0.67009      .   S
    C140   O337      0.67009      .   S
    C142   O338      0.68338      .   S
    C110   O338      0.68338      .   S
    C142   O339      1.11927      .   S
    C1     O339      1.11927      .   S
    C145   O340      0.68187      .   S
    C110   O340      0.68187      .   S
    C145   O341      1.11701      .   S
    C2     O341      1.11701      .   S
    C103   O342      0.55021      .   S
    C27    O342      0.55021      .   S
    C103   O343      0.76265      .   S
    C75    O343      0.76265      .   S
    C105   O344      0.55023      .   S
    C42    O344      0.55023      .   S
    C105   O345      0.76271      .   S
    C93    O345      0.76271      .   S
    C110   O346      0.66776      .   S
    C158   O346      0.66776      .   S
    C6     O347      1.21809  1_655   S
    C169   O347      1.21809      .   S
    C6     O348      1.15603      .   S
    C123   O348      1.15603      .   S
    C10    O349      1.21850  1_565   S
    C175   O349      1.21850      .   S
    C10    O350      1.15569      .   S
    C129   O350      1.15569      .   S
    C140   O351      0.51448      .   S
    C16    O351      0.51448      .   S
    C140   O352      0.51448      .   S
    C61    O352      0.51448      .   S
    C51    O353      0.51475      .   S
    C155   O353      0.51475      .   S
    C36    O354      0.51451      .   S
    C152   O354      0.51451      .   S
    C24    O355      0.51559  1_655   S
    C118   O355      0.51559      .   S
    C69    O356      0.51555  1_565   S
    C136   O356      0.51555      .   S
    C158   O357      0.51928      .   S
    C70    O357      0.51928      .   S
    C158   O358      0.51927      .   S
    C25    O358      0.51927      .   S
    C1     O359      1.10061      .   S
    C141   O359      1.10061      .   S
    C2     O360      1.10041      .   S
    C144   O360      1.10041      .   S
    C75    O361      0.63662      .   S
    C165   O361      0.63662      .   S
    C75    O362      0.63764      .   S
    C164   O362      0.63764      .   S
    C93    O363      0.63660      .   S
    C183   O363      0.63660      .   S
    C93    O364      0.63762      .   S
    C182   O364      0.63762      .   S
    C152   O365      0.51447      .   S
    C56    O365      0.51447      .   S
    C152   O366      0.65946      .   S
    C100   O366      0.65946      .   S
    C155   O367      0.51446      .   S
    C41    O367      0.51446      .   S
    C155   O368      0.67007      .   S
    C101   O368      0.67007      .   S
    C23    O369      0.51359      .   S
    C118   O369      0.51359      .   S
    C68    O370      0.51351      .   S
    C136   O370      0.51351      .   S
    C118   O371      0.67043      .   S
    C76    O371      0.67043      .   S
    C136   O372      0.67061      .   S
    C94    O372      0.67061      .   S
    C183   O373      1.21789      .   S
    C11    O373      1.21789      .   S
    C129   O374      0.67836      .   S
    C101   O374      0.67836      .   S
    C129   O375      0.67730  1_565   S
    C86    O375      0.67730      .   S
    C123   O376      0.66880      .   S
    C100   O376      0.66880      .   S
    C123   O377      0.67707  1_655   S
    C80    O377      0.67707      .   S
    C33    O378      0.51358      .   S
    C122   O378      0.51358      .   S
    C48    O379      0.51360      .   S
    C128   O379      0.51360      .   S
    C100   O380      0.69817      .   S
    C131   O380      0.69817      .   S
    C101   O381      0.67824      .   S
    C125   O381      0.67824      .   S
    C76    O382      0.68315  1_455   S
    C144   O382      0.68315      .   S
    C94    O383      0.68332  1_545   S
    C141   O383      0.68332      .   S
    C122   O384      0.67044      .   S
    C80    O384      0.67044      .   S
    C128   O385      0.67042      .   S
    C86    O385      0.67042      .   S
    C131   O386      1.15608      .   S
    C11    O386      1.15608      .   S
    C178   O387      1.09491      .   S
    C8     O387      1.09491      .   S
    C179   O388      0.76917      .   S
    C8     O388      0.76917      .   S
