# CIF file generated by openbabel 2.4.90, see http://openbabel.sf.net
data_I
_chemical_name_common ''
_cell_length_a 14.131
_cell_length_b 14.13
_cell_length_c 14.133
_cell_angle_alpha 104.811
_cell_angle_beta 104.76
_cell_angle_gamma 104.833
_space_group_name_H-M_alt 'P 1'
_space_group_name_Hall 'P 1'
loop_
    _symmetry_equiv_pos_as_xyz
    x,y,z
loop_
    _atom_site_label
    _atom_site_type_symbol
    _atom_site_fract_x
    _atom_site_fract_y
    _atom_site_fract_z
    _atom_site_occupancy
    N0      N    0.01410   0.61705   0.01410   1.000
    N1      N    0.61710   0.01409   0.01412   1.000
    N2      N    0.98586   0.98586   0.38291   1.000
    N3      N    0.50020   0.31741   0.68268   1.000
    N4      N    0.64559   0.64554   0.64555   1.000
    N5      N    0.38291   0.98589   0.98585   1.000
    N6      N    0.35442   0.35444   0.35442   1.000
    N7      N    0.68267   0.31736   0.50014   1.000
    N8      N    0.32539   0.55800   0.75465   1.000
    N9      N    0.68252   0.49993   0.31742   1.000
    N10     N    0.44190   0.67462   0.24511   1.000
    N11     N    0.31735   0.68262   0.49985   1.000
    N12     N    0.01415   0.01411   0.61711   1.000
    N13     N    0.98592   0.38293   0.98570   1.000
    Zr14    Zr   0.21297   0.21297   0.47895   1.000
    O15     O    0.26140   0.26142   0.44104   1.000
    O16     O    0.13884   0.13885   0.44924   1.000
    Zr17    Zr   0.03441   0.66215   0.35337   1.000
    O18     O    0.87588   0.59246   0.33397   1.000
    O19     O    0.15846   0.67379   0.41521   1.000
    O20     O    0.01324   0.77930   0.35031   1.000
    O21     O    0.02115   0.65742   0.22843   1.000
    Zr22    Zr   0.00004   0.34674   0.65331   1.000
    O23     O    0.00398   0.22513   0.65304   1.000
    O24     O    0.99608   0.34701   0.77486   1.000
    O25     O    0.85877   0.33064   0.58813   1.000
    O26     O    0.14332   0.42646   0.68739   1.000
    Zr27    Zr   0.47876   0.21291   0.21291   1.000
    O28     O    0.44091   0.26138   0.26136   1.000
    O29     O    0.44911   0.13883   0.13880   1.000
    Zr30    Zr   0.34667   0.99999   0.65337   1.000
    O31     O    0.34694   0.99604   0.77495   1.000
    O32     O    0.22508   0.00394   0.65310   1.000
    O33     O    0.41198   0.14130   0.66945   1.000
    O34     O    0.33058   0.85870   0.58806   1.000
    Zr35    Zr   0.65326   0.34676   0.00002   1.000
    O36     O    0.58812   0.33068   0.85876   1.000
    O37     O    0.65299   0.22514   0.00396   1.000
    O38     O    0.77487   0.34703   0.99602   1.000
    O39     O    0.66931   0.41194   0.14131   1.000
    Zr40    Zr   0.78704   0.78700   0.52107   1.000
    O41     O    0.73861   0.73856   0.55897   1.000
    O42     O    0.86117   0.86112   0.55078   1.000
    Zr43    Zr   0.65334   0.99999   0.34664   1.000
    O44     O    0.57355   0.85670   0.31251   1.000
    O45     O    0.66943   0.14128   0.41195   1.000
    O46     O    0.65307   0.00394   0.22500   1.000
    O47     O    0.77493   0.99604   0.34692   1.000
    Zr48    Zr   0.52125   0.78706   0.78711   1.000
    O49     O    0.55090   0.86115   0.86120   1.000
    O50     O    0.55910   0.73860   0.73858   1.000
    Zr51    Zr   0.21280   0.47843   0.21279   1.000
    O52     O    0.13876   0.44889   0.13869   1.000
    O53     O    0.26128   0.44070   0.26128   1.000
    Zr54    Zr   0.78721   0.52154   0.78723   1.000
    O55     O    0.73873   0.55927   0.73873   1.000
    O56     O    0.86125   0.55108   0.86127   1.000
loop_
    _geom_bond_atom_site_label_1
    _geom_bond_atom_site_label_2
    _geom_bond_distance
    _geom_bond_site_symmetry_2
    _ccdc_geom_bond_type
    Zr14   O15       1.16556      .   S
    N6     O15       2.38994      .   S
    Zr14   O16       1.16608      .   S
    N2     O16       2.40084  1_665   S
    Zr17   O18       2.11717  1_455   S
    N9     O18       2.63038      .   S
    Zr17   O19       1.69176      .   S
    N11    O19       2.21346      .   S
    Zr17   O20       1.76501      .   S
    N2     O20       2.97698  1_655   S
    Zr17   O21       1.70944      .   S
    N0     O21       2.90599      .   S
    Zr22   O23       1.73259      .   S
    N12    O23       2.94129      .   S
    Zr22   O24       1.73206  1_455   S
    N13    O24       2.93929      .   S
    Zr22   O25       1.89967  1_455   S
    N7     O25       2.41640      .   S
    Zr22   O26       1.91264      .   S
    N8     O26       2.52581      .   S
    Zr27   O28       1.16542      .   S
    N6     O28       2.38969      .   S
    Zr27   O29       1.16606      .   S
    N5     O29       2.40085  1_566   S
    Zr30   O31       1.73242      .   S
    N5     O31       2.94065      .   S
    Zr30   O32       1.73236  1_565   S
    N12    O32       2.94065      .   S
    Zr30   O33       1.89942  1_565   S
    N3     O33       2.41594      .   S
    Zr30   O34       1.89942      .   S
    N11    O34       2.41590      .   S
    Zr35   O36       1.89978  1_554   S
    N3     O36       2.41626      .   S
    Zr35   O37       1.73272      .   S
    N1     O37       2.94153      .   S
    Zr35   O38       1.73294  1_554   S
    N13    O38       2.94228      .   S
    Zr35   O39       1.89968      .   S
    N9     O39       2.41627      .   S
    Zr40   O41       1.16544      .   S
    N4     O41       2.38957      .   S
    Zr40   O42       1.16607      .   S
    N12    O42       2.40083  1_445   S
    Zr43   O44       1.91266      .   S
    N10    O44       2.52601      .   S
    Zr43   O45       1.89939  1_565   S
    N7     O45       2.41585      .   S
    Zr43   O46       1.73331  1_565   S
    N1     O46       2.94041      .   S
    Zr43   O47       1.73233      .   S
    N2     O47       2.94069      .   S
    Zr48   O49       1.16595      .   S
    N1     O49       2.40054  1_544   S
    Zr48   O50       1.16600      .   S
    N4     O50       2.38946      .   S
    Zr51   O52       1.16628      .   S
    N13    O52       2.40168  1_656   S
    Zr51   O53       1.16529      .   S
    N6     O53       2.38947      .   S
    Zr54   O55       1.16538      .   S
    N4     O55       2.38972      .   S
    Zr54   O56       1.16583      .   S
    N0     O56       2.40035  1_454   S
