# CIF file generated by openbabel 2.4.90, see http://openbabel.sf.net
data_I
_chemical_name_common ''
_cell_length_a 14.131
_cell_length_b 14.13
_cell_length_c 14.133
_cell_angle_alpha 104.811
_cell_angle_beta 104.76
_cell_angle_gamma 104.833
_space_group_name_H-M_alt 'P 1'
_space_group_name_Hall 'P 1'
loop_
    _symmetry_equiv_pos_as_xyz
    x,y,z
loop_
    _atom_site_label
    _atom_site_type_symbol
    _atom_site_fract_x
    _atom_site_fract_y
    _atom_site_fract_z
    _atom_site_occupancy
    Zr0     Zr   0.78704   0.78700   0.52107   1.000
    Zr1     Zr   0.52125   0.78706   0.78711   1.000
    Zr2     Zr   0.78721   0.52154   0.78723   1.000
    Zr3     Zr   0.21297   0.21297   0.47895   1.000
    Zr4     Zr   0.21280   0.47843   0.21279   1.000
    Zr5     Zr   0.47876   0.21291   0.21291   1.000
    Zr6     Zr   0.99999   0.27538   0.72466   1.000
    Zr7     Zr   0.72477   0.00001   0.27521   1.000
    Zr8     Zr   0.27544   0.72453   0.40000   1.000
    Zr9     Zr   0.00002   0.72459   0.27536   1.000
    Zr10    Zr   0.27524   0.99999   0.72481   1.000
    Zr11    Zr   0.72456   0.27544   0.99998   1.000
    Zr12    Zr   0.59137   0.80198   0.32578   1.000
    Zr13    Zr   0.80216   0.32588   0.59140   1.000
    Zr14    Zr   0.19796   0.40867   0.67416   1.000
    Zr15    Zr   0.67422   0.19797   0.40864   1.000
    Zr16    Zr   0.40865   0.19799   0.67424   1.000
    Zr17    Zr   0.67409   0.40863   0.19793   1.000
    Zr18    Zr   0.19785   0.67410   0.40862   1.000
    Zr19    Zr   0.80205   0.59131   0.32586   1.000
    Zr20    Zr   0.59141   0.32592   0.80210   1.000
    Zr21    Zr   0.32579   0.80200   0.59138   1.000
    Zr22    Zr   0.64314   0.85147   0.42227   1.000
    Zr23    Zr   0.61356   0.82630   0.25138   1.000
    Zr24    Zr   0.85168   0.42242   0.64317   1.000
    Zr25    Zr   0.82643   0.25145   0.61354   1.000
    Zr26    Zr   0.14838   0.35692   0.57768   1.000
    Zr27    Zr   0.17367   0.38646   0.74857   1.000
    Zr28    Zr   0.57771   0.14851   0.35683   1.000
    Zr29    Zr   0.74863   0.17368   0.38640   1.000
    Zr30    Zr   0.35687   0.14850   0.57775   1.000
    Zr31    Zr   0.38645   0.17367   0.74864   1.000
    Zr32    Zr   0.57759   0.35693   0.14831   1.000
    Zr33    Zr   0.74851   0.38646   0.17360   1.000
    Zr34    Zr   0.14833   0.57756   0.35685   1.000
    Zr35    Zr   0.17358   0.74853   0.38648   1.000
    Zr36    Zr   0.85163   0.64305   0.42234   1.000
    Zr37    Zr   0.82634   0.61352   0.25145   1.000
    Zr38    Zr   0.64311   0.42247   0.85176   1.000
    Zr39    Zr   0.61352   0.25149   0.82647   1.000
    Zr40    Zr   0.42230   0.85146   0.64319   1.000
    Zr41    Zr   0.25138   0.82629   0.61358   1.000
    O42     O    0.62584   0.38278   0.17312   1.000
    O43     O    0.71130   0.39755   0.18576   1.000
    O44     O    0.73654   0.33095   0.08679   1.000
    O45     O    0.66916   0.91316   0.26329   1.000
    O46     O    0.60246   0.81414   0.28858   1.000
    O47     O    0.91318   0.66905   0.26340   1.000
    O48     O    0.81419   0.60241   0.28865   1.000
    O49     O    0.73670   0.08685   0.33081   1.000
    O50     O    0.08680   0.73656   0.33092   1.000
    O51     O    0.61725   0.82673   0.37402   1.000
    O52     O    0.82684   0.61718   0.37410   1.000
    O53     O    0.62597   0.17324   0.38273   1.000
    O54     O    0.17309   0.62583   0.38273   1.000
    O55     O    0.71143   0.18583   0.39752   1.000
    O56     O    0.18572   0.71131   0.39755   1.000
    O57     O    0.23665   0.69931   0.40431   1.000
    O58     O    0.17317   0.38280   0.62592   1.000
    O59     O    0.38276   0.17325   0.62599   1.000
    O60     O    0.28858   0.81415   0.60248   1.000
    O61     O    0.37404   0.82673   0.61728   1.000
    O62     O    0.81429   0.28866   0.60247   1.000
    O63     O    0.82692   0.37415   0.61728   1.000
    O64     O    0.91321   0.26341   0.66910   1.000
    O65     O    0.26331   0.91314   0.66919   1.000
    O66     O    0.18582   0.39756   0.71136   1.000
    O67     O    0.39755   0.18583   0.71144   1.000
    O68     O    0.08683   0.33092   0.73661   1.000
    O69     O    0.33084   0.08683   0.73672   1.000
    O70     O    0.60247   0.28871   0.81428   1.000
    O71     O    0.61726   0.37419   0.82693   1.000
    O72     O    0.66904   0.26347   0.91322   1.000
    O73     O    0.21189   0.65104   0.37842   1.000
    O74     O    0.22451   0.73653   0.39324   1.000
    N75     N    0.01410   0.61705   0.01410   1.000
    O76     O    0.00789   0.65269   0.10349   1.000
    O77     O    0.93529   0.58062   0.93531   1.000
    N78     N    0.61710   0.01409   0.01412   1.000
    O79     O    0.65273   0.10351   0.00790   1.000
    O80     O    0.58055   0.93524   0.93530   1.000
    O81     O    0.65279   0.00788   0.10336   1.000
    N82     N    0.98586   0.98586   0.38291   1.000
    O83     O    0.06472   0.06473   0.41953   1.000
    O84     O    0.89652   0.99208   0.34720   1.000
    O85     O    0.99208   0.89646   0.34724   1.000
    N86     N    0.50020   0.31741   0.68268   1.000
    O87     O    0.47730   0.28260   0.68553   1.000
    O88     O    0.52299   0.31459   0.71750   1.000
    N89     N    0.64559   0.64554   0.64555   1.000
    O90     O    0.59694   0.69014   0.69005   1.000
    O91     O    0.69017   0.69012   0.59687   1.000
    O92     O    0.69024   0.59701   0.69023   1.000
    N93     N    0.38291   0.98589   0.98585   1.000
    O94     O    0.34722   0.99210   0.89653   1.000
    O95     O    0.41946   0.06474   0.06470   1.000
    N96     N    0.35442   0.35444   0.35442   1.000
    O97     O    0.30977   0.40297   0.30977   1.000
    O98     O    0.30984   0.30986   0.40313   1.000
    O99     O    0.40307   0.30984   0.30982   1.000
    N100    N    0.68267   0.31736   0.50014   1.000
    O101    O    0.68552   0.28256   0.47725   1.000
    O102    O    0.71750   0.31454   0.52294   1.000
    N103    N    0.32539   0.55800   0.75465   1.000
    O104    O    0.28660   0.50617   0.72147   1.000
    N105    N    0.68252   0.49993   0.31742   1.000
    O106    O    0.71736   0.52278   0.31458   1.000
    O107    O    0.68537   0.47711   0.28259   1.000
    N108    N    0.44190   0.67462   0.24511   1.000
    O109    O    0.49376   0.71340   0.27837   1.000
    N110    N    0.31735   0.68262   0.49985   1.000
    O111    O    0.28251   0.68544   0.47706   1.000
    O112    O    0.31450   0.71742   0.52275   1.000
    N113    N    0.01415   0.01411   0.61711   1.000
    O114    O    0.93529   0.93524   0.58049   1.000
    O115    O    0.10349   0.00790   0.65282   1.000
    O116    O    0.00793   0.10351   0.65278   1.000
    N117    N    0.98592   0.38293   0.98570   1.000
    O118    O    0.89649   0.34730   0.99201   1.000
    O119    O    0.99213   0.34728   0.89642   1.000
    O120    O    0.06472   0.41936   0.06460   1.000
loop_
    _geom_bond_atom_site_label_1
    _geom_bond_atom_site_label_2
    _geom_bond_distance
    _geom_bond_site_symmetry_2
    _ccdc_geom_bond_type
    Zr32   O42       0.63754      .   S
    Zr17   O42       0.63754      .   S
    Zr33   O43       0.63644      .   S
    Zr17   O43       0.63644      .   S
    Zr33   O44       1.21792      .   S
    Zr11   O44       1.21792  1_556   S
    Zr23   O45       1.21866      .   S
    Zr7    O45       1.21866  1_545   S
    Zr23   O46       0.63632      .   S
    Zr12   O46       0.63632      .   S
    Zr37   O47       1.21809      .   S
    Zr9    O47       1.21809  1_455   S
    Zr37   O48       0.63634      .   S
    Zr19   O48       0.63634      .   S
    Zr7    O49       1.21858      .   S
    Zr29   O49       1.21858      .   S
    Zr9    O50       1.21829      .   S
    Zr35   O50       1.21829      .   S
    Zr12   O51       0.63758      .   S
    Zr22   O51       0.63758      .   S
    Zr19   O52       0.63756      .   S
    Zr36   O52       0.63756      .   S
    Zr28   O53       0.63758      .   S
    Zr15   O53       0.63758      .   S
    Zr34   O54       0.63756      .   S
    Zr18   O54       0.63756      .   S
    Zr29   O55       0.63646      .   S
    Zr15   O55       0.63646      .   S
    Zr35   O56       0.63638      .   S
    Zr18   O56       0.63638      .   S
    Zr18   O57       0.59940      .   S
    Zr8    O57       0.59940      .   S
    Zr26   O58       0.63757      .   S
    Zr14   O58       0.63757      .   S
    Zr30   O59       0.63759      .   S
    Zr16   O59       0.63759      .   S
    Zr21   O60       0.63635      .   S
    Zr41   O60       0.63635      .   S
    Zr21   O61       0.63758      .   S
    Zr40   O61       0.63758      .   S
    Zr13   O62       0.63638      .   S
    Zr25   O62       0.63638      .   S
    Zr13   O63       0.63756      .   S
    Zr24   O63       0.63756      .   S
    Zr25   O64       1.21830      .   S
    Zr6    O64       1.21830      .   S
    Zr41   O65       1.21888      .   S
    Zr10   O65       1.21888      .   S
    Zr14   O66       0.63636      .   S
    Zr27   O66       0.63636      .   S
    Zr16   O67       0.63634      .   S
    Zr31   O67       0.63634      .   S
    Zr6    O68       1.21809  1_655   S
    Zr27   O68       1.21809      .   S
    Zr10   O69       1.21850  1_565   S
    Zr31   O69       1.21850      .   S
    Zr20   O70       0.63660      .   S
    Zr39   O70       0.63660      .   S
    Zr20   O71       0.63762      .   S
    Zr38   O71       0.63762      .   S
    Zr39   O72       1.21789      .   S
    Zr11   O72       1.21789      .   S
    Zr34   O73       1.09491      .   S
    Zr8    O73       1.09491      .   S
    Zr35   O74       0.76917      .   S
    Zr8    O74       0.76917      .   S
    N75    O76       1.26937      .   S
    Zr9    O76       2.42452      .   S
    N75    O77       1.23549  1_454   S
    Zr2    O77       2.33166      .   S
    N78    O79       1.26943      .   S
    Zr11   O79       2.42467  1_556   S
    N78    O80       1.23556  1_544   S
    Zr1    O80       2.33191      .   S
    N78    O81       1.26806      .   S
    Zr7    O81       2.42548      .   S
    N82    O83       1.23574  1_665   S
    Zr3    O83       2.33215      .   S
    N82    O84       1.26929      .   S
    Zr7    O84       2.42429  1_545   S
    N82    O85       1.26948      .   S
    Zr9    O85       2.42460  1_455   S
    N86    O87       0.53250      .   S
    Zr16   O87       1.27501      .   S
    N86    O88       0.53225      .   S
    Zr20   O88       1.27431      .   S
    N89    O90       1.22672      .   S
    Zr1    O90       2.33200      .   S
    N89    O91       1.22734      .   S
    Zr0    O91       2.33088      .   S
    N89    O92       1.22755      .   S
    Zr2    O92       2.33075      .   S
    N93    O94       1.26912      .   S
    Zr10   O94       2.42394      .   S
    N93    O95       1.23577  1_566   S
    Zr5    O95       2.33212      .   S
    N96    O97       1.22738      .   S
    Zr4    O97       2.33057      .   S
    N96    O98       1.22759      .   S
    Zr3    O98       2.33113      .   S
    N96    O99       1.22748      .   S
    Zr5    O99       2.33084      .   S
    N100   O101      0.53240      .   S
    Zr15   O101      1.27487      .   S
    N100   O102      0.53248      .   S
    Zr13   O102      1.27502      .   S
    N103   O104      0.73794      .   S
    Zr14   O104      1.46040      .   S
    N105   O106      0.53250      .   S
    Zr19   O106      1.27502      .   S
    N105   O107      0.53244      .   S
    Zr17   O107      1.27491      .   S
    N108   O109      0.73853      .   S
    Zr12   O109      1.46096      .   S
    N110   O111      0.53244      .   S
    Zr18   O111      1.27491      .   S
    N110   O112      0.53245      .   S
    Zr21   O112      1.27499      .   S
    N113   O114      1.23574  1_445   S
    Zr0    O114      2.33214      .   S
    N113   O115      1.26923      .   S
    Zr10   O115      2.42410  1_565   S
    N113   O116      1.26948      .   S
    Zr6    O116      2.42459  1_655   S
    N117   O118      1.26998      .   S
    Zr11   O118      2.42516      .   S
    N117   O119      1.26796      .   S
    Zr6    O119      2.42312      .   S
    N117   O120      1.23637  1_656   S
    Zr4    O120      2.33256      .   S
