# CIF file generated by openbabel 2.4.90, see http://openbabel.sf.net
data_I
_chemical_name_common ''
_cell_length_a 17.555
_cell_length_b 17.545
_cell_length_c 15.913
_cell_angle_alpha 90
_cell_angle_beta 89.999
_cell_angle_gamma 92.602
_space_group_name_H-M_alt 'P 1'
_space_group_name_Hall 'P 1'
loop_
    _symmetry_equiv_pos_as_xyz
    x,y,z
loop_
    _atom_site_label
    _atom_site_type_symbol
    _atom_site_fract_x
    _atom_site_fract_y
    _atom_site_fract_z
    _atom_site_occupancy
    C0      C    0.46494   0.03497   0.32065   1.000
    C1      C    0.46494   0.53496   0.32065   1.000
    C2      C    0.96495   0.03497   0.32065   1.000
    C3      C    0.96495   0.53496   0.32065   1.000
    C4      C    0.17309   0.32681   0.18737   1.000
    C5      C    0.17309   0.82680   0.18737   1.000
    C6      C    0.67310   0.32681   0.18737   1.000
    C7      C    0.67310   0.82680   0.18737   1.000
    C8      C    0.32028   0.17969   0.27074   1.000
    C9      C    0.32028   0.67968   0.27074   1.000
    C10     C    0.82029   0.17969   0.27074   1.000
    C11     C    0.82029   0.67968   0.27074   1.000
    C12     C    0.03507   0.46499   0.82063   1.000
    C13     C    0.03507   0.96498   0.82063   1.000
    C14     C    0.53508   0.46499   0.82063   1.000
    C15     C    0.53508   0.96498   0.82063   1.000
    C16     C    0.32692   0.17316   0.68737   1.000
    C17     C    0.32692   0.67315   0.68737   1.000
    C18     C    0.82693   0.17316   0.68737   1.000
    C19     C    0.82693   0.67315   0.68737   1.000
    C20     C    0.17973   0.32028   0.77070   1.000
    C21     C    0.17973   0.82027   0.77070   1.000
    C22     C    0.67974   0.32028   0.77070   1.000
    C23     C    0.67974   0.82027   0.77070   1.000
    C24     C    0.34753   0.37832   0.25761   1.000
    C25     C    0.34753   0.87831   0.25760   1.000
    C26     C    0.84754   0.37832   0.25761   1.000
    C27     C    0.84754   0.87831   0.25761   1.000
    C28     C    0.18490   0.03451   0.18792   1.000
    C29     C    0.18491   0.53450   0.18792   1.000
    C30     C    0.68491   0.03451   0.18792   1.000
    C31     C    0.68492   0.53450   0.18792   1.000
    C32     C    0.15247   0.12165   0.75757   1.000
    C33     C    0.15247   0.62164   0.75757   1.000
    C34     C    0.65248   0.12165   0.75757   1.000
    C35     C    0.65248   0.62164   0.75757   1.000
    C36     C    0.31510   0.46547   0.68789   1.000
    C37     C    0.31511   0.96546   0.68789   1.000
    C38     C    0.81511   0.46547   0.68789   1.000
    C39     C    0.81512   0.96546   0.68789   1.000
    C40     C    0.37868   0.34769   0.75752   1.000
    C41     C    0.37868   0.84768   0.75752   1.000
    C42     C    0.87869   0.34769   0.75752   1.000
    C43     C    0.87869   0.84768   0.75752   1.000
    C44     C    0.03446   0.18462   0.68802   1.000
    C45     C    0.03446   0.68461   0.68802   1.000
    C46     C    0.53447   0.18462   0.68802   1.000
    C47     C    0.53447   0.68461   0.68802   1.000
    C48     C    0.12133   0.15229   0.25756   1.000
    C49     C    0.12133   0.65228   0.25756   1.000
    C50     C    0.62134   0.15229   0.25756   1.000
    C51     C    0.62134   0.65228   0.25756   1.000
    C52     C    0.46555   0.31535   0.18804   1.000
    C53     C    0.46555   0.81535   0.18804   1.000
    C54     C    0.96556   0.31536   0.18804   1.000
    C55     C    0.96556   0.81535   0.18804   1.000
    C56     C    0.28897   0.21143   0.48435   1.000
    C57     C    0.28898   0.71142   0.48435   1.000
    C58     C    0.78898   0.21143   0.48435   1.000
    C59     C    0.78899   0.71142   0.48435   1.000
    C60     C    0.44831   0.05133   0.55436   1.000
    C61     C    0.44831   0.55132   0.55436   1.000
    C62     C    0.94832   0.05133   0.55436   1.000
    C63     C    0.94832   0.55132   0.55436   1.000
    C64     C    0.21104   0.28854   0.98432   1.000
    C65     C    0.21104   0.78853   0.98432   1.000
    C66     C    0.71105   0.28854   0.98432   1.000
    C67     C    0.71105   0.78853   0.98432   1.000
    C68     C    0.05170   0.44864   0.05435   1.000
    C69     C    0.05170   0.94863   0.05435   1.000
    C70     C    0.55171   0.44864   0.05435   1.000
    C71     C    0.55171   0.94863   0.05435   1.000
    C72     C    0.31961   0.43093   0.24504   1.000
    C73     C    0.31961   0.93092   0.24504   1.000
    C74     C    0.81962   0.43093   0.24504   1.000
    C75     C    0.81962   0.93092   0.24504   1.000
    C76     C    0.23684   0.01025   0.21022   1.000
    C77     C    0.23684   0.51024   0.21022   1.000
    C78     C    0.73685   0.01025   0.21022   1.000
    C79     C    0.73685   0.51024   0.21022   1.000
    C80     C    0.18039   0.06904   0.74501   1.000
    C81     C    0.18039   0.56903   0.74501   1.000
    C82     C    0.68040   0.06904   0.74501   1.000
    C83     C    0.68040   0.56903   0.74501   1.000
    C84     C    0.26317   0.48973   0.71019   1.000
    C85     C    0.26317   0.98972   0.71019   1.000
    C86     C    0.76318   0.48973   0.71019   1.000
    C87     C    0.76318   0.98972   0.71019   1.000
    C88     C    0.43120   0.31964   0.74490   1.000
    C89     C    0.43121   0.81963   0.74490   1.000
    C90     C    0.93121   0.31964   0.74490   1.000
    C91     C    0.93122   0.81963   0.74498   1.000
    C92     C    0.01031   0.23665   0.71020   1.000
    C93     C    0.01031   0.73664   0.71020   1.000
    C94     C    0.51032   0.23665   0.71028   1.000
    C95     C    0.51032   0.73664   0.71020   1.000
    C96     C    0.06881   0.18034   0.24502   1.000
    C97     C    0.06881   0.68033   0.24502   1.000
    C98     C    0.56881   0.18034   0.24502   1.000
    C99     C    0.56882   0.68033   0.24502   1.000
    C100    C    0.48970   0.26332   0.21030   1.000
    C101    C    0.48970   0.76332   0.21030   1.000
    C102    C    0.98971   0.26333   0.21030   1.000
    C103    C    0.98971   0.76332   0.21030   1.000
    C104    C    0.33162   0.16860   0.48194   1.000
    C105    C    0.33162   0.66859   0.48194   1.000
    C106    C    0.83163   0.16860   0.48194   1.000
    C107    C    0.83163   0.66859   0.48194   1.000
    C108    C    0.41236   0.08747   0.51764   1.000
    C109    C    0.41236   0.58746   0.51764   1.000
    C110    C    0.91237   0.08747   0.51764   1.000
    C111    C    0.91237   0.58746   0.51764   1.000
    C112    C    0.16839   0.33137   0.98191   1.000
    C113    C    0.16840   0.83136   0.98191   1.000
    C114    C    0.66840   0.33137   0.98191   1.000
    C115    C    0.66841   0.83136   0.98191   1.000
    C116    C    0.08765   0.41250   0.01760   1.000
    C117    C    0.08765   0.91249   0.01760   1.000
    C118    C    0.58766   0.41250   0.01760   1.000
    C119    C    0.58766   0.91249   0.01760   1.000
    C120    C    0.35075   0.00010   0.26075   1.000
    C121    C    0.35075   0.50009   0.26075   1.000
    C122    C    0.85076   0.00010   0.26075   1.000
    C123    C    0.85076   0.50009   0.26075   1.000
    C124    C    0.29712   0.05167   0.23840   1.000
    C125    C    0.29712   0.55166   0.23840   1.000
    C126    C    0.79713   0.05167   0.23840   1.000
    C127    C    0.79713   0.55166   0.23840   1.000
    C128    C    0.24836   0.43439   0.21333   1.000
    C129    C    0.24837   0.93438   0.21333   1.000
    C130    C    0.74838   0.43439   0.21333   1.000
    C131    C    0.74838   0.93438   0.21333   1.000
    C132    C    0.14926   0.49987   0.76072   1.000
    C133    C    0.14926   0.99986   0.76072   1.000
    C134    C    0.64926   0.49987   0.76072   1.000
    C135    C    0.64927   0.99986   0.76072   1.000
    C136    C    0.20289   0.44830   0.73841   1.000
    C137    C    0.20289   0.94829   0.73841   1.000
    C138    C    0.70290   0.44830   0.73841   1.000
    C139    C    0.70290   0.94829   0.73841   1.000
    C140    C    0.25164   0.06558   0.71330   1.000
    C141    C    0.25164   0.56557   0.71330   1.000
    C142    C    0.75165   0.06558   0.71330   1.000
    C143    C    0.75165   0.56557   0.71330   1.000
    C144    C    0.00036   0.35068   0.76073   1.000
    C145    C    0.00036   0.85067   0.76073   1.000
    C146    C    0.50037   0.35068   0.76073   1.000
    C147    C    0.50037   0.85067   0.76073   1.000
    C148    C    0.05180   0.29691   0.73847   1.000
    C149    C    0.05181   0.79690   0.73847   1.000
    C150    C    0.55181   0.29691   0.73847   1.000
    C151    C    0.55182   0.79690   0.73847   1.000
    C152    C    0.43454   0.24831   0.71337   1.000
    C153    C    0.43454   0.74830   0.71330   1.000
    C154    C    0.93455   0.24831   0.71337   1.000
    C155    C    0.93455   0.74830   0.71330   1.000
    C156    C    0.49965   0.14929   0.26076   1.000
    C157    C    0.49966   0.64929   0.26076   1.000
    C158    C    0.99966   0.14929   0.26076   1.000
    C159    C    0.99967   0.64929   0.26076   1.000
    C160    C    0.44820   0.20306   0.23850   1.000
    C161    C    0.44821   0.70305   0.23850   1.000
    C162    C    0.94821   0.20306   0.23851   1.000
    C163    C    0.94822   0.70305   0.23851   1.000
    C164    C    0.06547   0.25167   0.21339   1.000
    C165    C    0.06547   0.75166   0.21339   1.000
    C166    C    0.56548   0.25166   0.21339   1.000
    C167    C    0.56548   0.75166   0.21339   1.000
    C168    C    0.35885   0.14126   0.41047   1.000
    C169    C    0.35885   0.64125   0.41047   1.000
    C170    C    0.85886   0.14126   0.41047   1.000
    C171    C    0.85886   0.64125   0.41047   1.000
    C172    C    0.41128   0.08857   0.43359   1.000
    C173    C    0.41129   0.58856   0.43359   1.000
    C174    C    0.91129   0.08857   0.43359   1.000
    C175    C    0.91129   0.58856   0.43359   1.000
    C176    C    0.36332   0.13674   0.55071   1.000
    C177    C    0.36332   0.63673   0.55071   1.000
    C178    C    0.86333   0.13674   0.55071   1.000
    C179    C    0.86333   0.63673   0.55071   1.000
    C180    C    0.14117   0.35871   0.91044   1.000
    C181    C    0.14117   0.85870   0.91044   1.000
    C182    C    0.64118   0.35871   0.91044   1.000
    C183    C    0.64118   0.85870   0.91044   1.000
    C184    C    0.08873   0.41139   0.93356   1.000
    C185    C    0.08873   0.91138   0.93356   1.000
    C186    C    0.58874   0.41139   0.93356   1.000
    C187    C    0.58874   0.91138   0.93356   1.000
    C188    C    0.13669   0.36323   0.05070   1.000
    C189    C    0.13670   0.86322   0.05070   1.000
    C190    C    0.63670   0.36323   0.05070   1.000
    C191    C    0.63671   0.86322   0.05070   1.000
    C192    C    0.05806   0.44252   0.28649   1.000
    C193    C    0.05806   0.94251   0.28649   1.000
    C194    C    0.55807   0.44251   0.28649   1.000
    C195    C    0.55807   0.94251   0.28649   1.000
    C196    C    0.22946   0.27021   0.33786   1.000
    C197    C    0.22947   0.77020   0.33786   1.000
    C198    C    0.72947   0.27021   0.33786   1.000
    C199    C    0.72948   0.77020   0.33786   1.000
    C200    C    0.26912   0.23076   0.12643   1.000
    C201    C    0.26912   0.73075   0.12643   1.000
    C202    C    0.76913   0.23076   0.12643   1.000
    C203    C    0.76913   0.73075   0.12643   1.000
    C204    C    0.44195   0.05745   0.78645   1.000
    C205    C    0.44195   0.55744   0.78645   1.000
    C206    C    0.94196   0.05745   0.78645   1.000
    C207    C    0.94196   0.55744   0.78645   1.000
    C208    C    0.27054   0.22976   0.83784   1.000
    C209    C    0.27054   0.72975   0.83784   1.000
    C210    C    0.77055   0.22976   0.83784   1.000
    C211    C    0.77055   0.72975   0.83784   1.000
    C212    C    0.23090   0.26922   0.62641   1.000
    C213    C    0.23090   0.76921   0.62641   1.000
    C214    C    0.73091   0.26922   0.62641   1.000
    C215    C    0.73091   0.76921   0.62641   1.000
    O216    O    0.61218   0.88786   0.03415   1.000
    O217    O    0.56969   0.93056   0.03598   1.000
    O218    O    0.58820   0.91194   0.97558   1.000
    O219    O    0.61218   0.38787   0.03415   1.000
    O220    O    0.56968   0.43057   0.03598   1.000
    O221    O    0.58820   0.41195   0.97558   1.000
    O222    O    0.11217   0.88786   0.03415   1.000
    O223    O    0.06968   0.93056   0.03598   1.000
    O224    O    0.08819   0.91194   0.97558   1.000
    O225    O    0.11217   0.38787   0.03415   1.000
    O226    O    0.06967   0.43057   0.03598   1.000
    O227    O    0.08819   0.41195   0.97558   1.000
    O228    O    0.15489   0.34502   0.11904   1.000
    O229    O    0.15254   0.34730   0.01630   1.000
    O230    O    0.15489   0.84501   0.11904   1.000
    O231    O    0.15255   0.84729   0.01630   1.000
    O232    O    0.65490   0.34502   0.11904   1.000
    O233    O    0.65255   0.34730   0.01630   1.000
    O234    O    0.65490   0.84501   0.11904   1.000
    O235    O    0.65256   0.84729   0.01630   1.000
    O236    O    0.72111   0.27878   0.15690   1.000
    O237    O    0.22110   0.77877   0.15690   1.000
    O238    O    0.22110   0.27878   0.15690   1.000
    O239    O    0.72111   0.77877   0.15690   1.000
    O240    O    0.21073   0.88059   0.20035   1.000
    O241    O    0.11928   0.78923   0.20038   1.000
    O242    O    0.21073   0.38060   0.20035   1.000
    O243    O    0.11928   0.28924   0.20038   1.000
    O244    O    0.71074   0.38060   0.20035   1.000
    O245    O    0.61929   0.28924   0.20038   1.000
    O246    O    0.71074   0.88059   0.20035   1.000
    O247    O    0.61929   0.78923   0.20038   1.000
    O248    O    0.71088   0.52237   0.19907   1.000
    O249    O    0.71088   0.02238   0.19907   1.000
    O250    O    0.21087   0.52237   0.19907   1.000
    O251    O    0.21087   0.02238   0.19907   1.000
    O252    O    0.47762   0.28934   0.19917   1.000
    O253    O    0.47763   0.78933   0.19917   1.000
    O254    O    0.97763   0.28934   0.19917   1.000
    O255    O    0.97764   0.78933   0.19917   1.000
    O256    O    0.24260   0.47231   0.21178   1.000
    O257    O    0.26698   0.53095   0.22431   1.000
    O258    O    0.74261   0.97231   0.21178   1.000
    O259    O    0.76699   0.03096   0.22431   1.000
    O260    O    0.24260   0.97231   0.21178   1.000
    O261    O    0.26698   0.03096   0.22431   1.000
    O262    O    0.74261   0.47231   0.21178   1.000
    O263    O    0.76699   0.53095   0.22431   1.000
    O264    O    0.02759   0.25750   0.21185   1.000
    O265    O    0.96896   0.23319   0.22441   1.000
    O266    O    0.02759   0.75749   0.21185   1.000
    O267    O    0.96896   0.73318   0.22441   1.000
    O268    O    0.52759   0.75749   0.21185   1.000
    O269    O    0.46895   0.73318   0.22440   1.000
    O270    O    0.52759   0.25750   0.21185   1.000
    O271    O    0.46895   0.23319   0.22440   1.000
    O272    O    0.78400   0.93265   0.22919   1.000
    O273    O    0.28399   0.43266   0.22919   1.000
    O274    O    0.28399   0.93265   0.22919   1.000
    O275    O    0.78400   0.43266   0.22919   1.000
    O276    O    0.06714   0.21600   0.22921   1.000
    O277    O    0.06714   0.71599   0.22921   1.000
    O278    O    0.56715   0.21600   0.22921   1.000
    O279    O    0.56715   0.71599   0.22921   1.000
    O280    O    0.82394   0.02589   0.24958   1.000
    O281    O    0.80871   0.11568   0.25457   1.000
    O282    O    0.82395   0.52588   0.24958   1.000
    O283    O    0.80871   0.61567   0.25457   1.000
    O284    O    0.32394   0.52588   0.24958   1.000
    O285    O    0.30870   0.61567   0.25457   1.000
    O286    O    0.32393   0.02589   0.24958   1.000
    O287    O    0.30870   0.11568   0.25457   1.000
    O288    O    0.47393   0.17618   0.24963   1.000
    O289    O    0.38424   0.19137   0.25462   1.000
    O290    O    0.47393   0.67617   0.24963   1.000
    O291    O    0.38424   0.69136   0.25462   1.000
    O292    O    0.97394   0.17618   0.24964   1.000
    O293    O    0.88425   0.19137   0.25462   1.000
    O294    O    0.97394   0.67617   0.24964   1.000
    O295    O    0.88425   0.69136   0.25462   1.000
    O296    O    0.59508   0.66630   0.25129   1.000
    O297    O    0.53424   0.66481   0.25289   1.000
    O298    O    0.59508   0.16631   0.25129   1.000
    O299    O    0.53423   0.16482   0.25289   1.000
    O300    O    0.09507   0.16631   0.25129   1.000
    O301    O    0.03423   0.16482   0.25289   1.000
    O302    O    0.09507   0.66630   0.25129   1.000
    O303    O    0.03424   0.66481   0.25289   1.000
    O304    O    0.83358   0.40462   0.25133   1.000
    O305    O    0.83519   0.46551   0.25290   1.000
    O306    O    0.33357   0.40462   0.25133   1.000
    O307    O    0.33518   0.46551   0.25290   1.000
    O308    O    0.33357   0.90461   0.25132   1.000
    O309    O    0.33518   0.96551   0.25290   1.000
    O310    O    0.83358   0.90461   0.25133   1.000
    O311    O    0.83519   0.96551   0.25290   1.000
    O312    O    0.40785   0.51753   0.29070   1.000
    O313    O    0.90785   0.51753   0.29070   1.000
    O314    O    0.90785   0.01754   0.29070   1.000
    O315    O    0.40784   0.01754   0.29070   1.000
    O316    O    0.48230   0.59212   0.29070   1.000
    O317    O    0.98231   0.09213   0.29070   1.000
    O318    O    0.98231   0.59212   0.29070   1.000
    O319    O    0.48230   0.09213   0.29070   1.000
    O320    O    0.27487   0.22495   0.30430   1.000
    O321    O    0.33956   0.16047   0.34061   1.000
    O322    O    0.27487   0.72494   0.30430   1.000
    O323    O    0.33957   0.66046   0.34061   1.000
    O324    O    0.77488   0.22495   0.30430   1.000
    O325    O    0.83957   0.16047   0.34061   1.000
    O326    O    0.77488   0.72494   0.30430   1.000
    O327    O    0.83958   0.66046   0.34061   1.000
    O328    O    0.01151   0.48874   0.30357   1.000
    O329    O    0.51151   0.98874   0.30357   1.000
    O330    O    0.51151   0.48874   0.30357   1.000
    O331    O    0.01151   0.98874   0.30357   1.000
    O332    O    0.43811   0.56176   0.37712   1.000
    O333    O    0.43811   0.06177   0.37712   1.000
    O334    O    0.93812   0.06177   0.37712   1.000
    O335    O    0.93812   0.56176   0.37712   1.000
    O336    O    0.38507   0.11491   0.42203   1.000
    O337    O    0.34523   0.15493   0.44621   1.000
    O338    O    0.38507   0.61490   0.42203   1.000
    O339    O    0.34524   0.65492   0.44621   1.000
    O340    O    0.88508   0.11491   0.42203   1.000
    O341    O    0.84524   0.15493   0.44621   1.000
    O342    O    0.88508   0.61490   0.42203   1.000
    O343    O    0.84525   0.65492   0.44621   1.000
    O344    O    0.41182   0.08802   0.47562   1.000
    O345    O    0.41182   0.58801   0.47562   1.000
    O346    O    0.91183   0.08802   0.47562   1.000
    O347    O    0.91183   0.58801   0.47562   1.000
    O348    O    0.31030   0.19002   0.48315   1.000
    O349    O    0.34747   0.15267   0.51633   1.000
    O350    O    0.31030   0.69001   0.48315   1.000
    O351    O    0.34747   0.65266   0.51633   1.000
    O352    O    0.81031   0.19001   0.48315   1.000
    O353    O    0.84748   0.15267   0.51633   1.000
    O354    O    0.81031   0.69001   0.48315   1.000
    O355    O    0.84748   0.65266   0.51633   1.000
    O356    O    0.38784   0.11210   0.53418   1.000
    O357    O    0.43033   0.06940   0.53600   1.000
    O358    O    0.88785   0.61209   0.53418   1.000
    O359    O    0.93035   0.56939   0.53600   1.000
    O360    O    0.38784   0.61209   0.53418   1.000
    O361    O    0.43034   0.56939   0.53600   1.000
    O362    O    0.88785   0.11210   0.53418   1.000
    O363    O    0.93034   0.06940   0.53600   1.000
    O364    O    0.84513   0.65494   0.61904   1.000
    O365    O    0.84513   0.15495   0.61904   1.000
    O366    O    0.34512   0.65494   0.61904   1.000
    O367    O    0.34512   0.15495   0.61904   1.000
    O368    O    0.77892   0.72118   0.65689   1.000
    O369    O    0.77892   0.22119   0.65689   1.000
    O370    O    0.27891   0.72118   0.65689   1.000
    O371    O    0.27891   0.22119   0.65689   1.000
    O372    O    0.78929   0.11937   0.70034   1.000
    O373    O    0.88074   0.21074   0.70037   1.000
    O374    O    0.88074   0.71073   0.70034   1.000
    O375    O    0.78929   0.61936   0.70034   1.000
    O376    O    0.28928   0.61936   0.70034   1.000
    O377    O    0.38073   0.71073   0.70034   1.000
    O378    O    0.28928   0.11937   0.70034   1.000
    O379    O    0.38073   0.21074   0.70037   1.000
    O380    O    0.28913   0.47760   0.69904   1.000
    O381    O    0.28914   0.97759   0.69904   1.000
    O382    O    0.78914   0.47760   0.69904   1.000
    O383    O    0.78915   0.97759   0.69904   1.000
    O384    O    0.52240   0.71062   0.69911   1.000
    O385    O    0.52239   0.21063   0.69915   1.000
    O386    O    0.02239   0.71062   0.69911   1.000
    O387    O    0.02238   0.21063   0.69911   1.000
    O388    O    0.25740   0.52765   0.71175   1.000
    O389    O    0.23303   0.46901   0.72430   1.000
    O390    O    0.25740   0.02765   0.71175   1.000
    O391    O    0.23303   0.96900   0.72430   1.000
    O392    O    0.75741   0.52765   0.71175   1.000
    O393    O    0.73304   0.46901   0.72430   1.000
    O394    O    0.75741   0.02765   0.71175   1.000
    O395    O    0.73304   0.96900   0.72430   1.000
    O396    O    0.97243   0.24248   0.71179   1.000
    O397    O    0.03106   0.26678   0.72434   1.000
    O398    O    0.97243   0.74247   0.71175   1.000
    O399    O    0.03106   0.76677   0.72434   1.000
    O400    O    0.47243   0.74247   0.71175   1.000
    O401    O    0.53107   0.76677   0.72434   1.000
    O402    O    0.47243   0.24248   0.71183   1.000
    O403    O    0.53107   0.26678   0.72438   1.000
    O404    O    0.71603   0.06731   0.72915   1.000
    O405    O    0.21602   0.56730   0.72915   1.000
    O406    O    0.21602   0.06731   0.72915   1.000
    O407    O    0.93288   0.78396   0.72914   1.000
    O408    O    0.43287   0.78396   0.72910   1.000
    O409    O    0.71603   0.56730   0.72915   1.000
    O410    O    0.43287   0.28397   0.72914   1.000
    O411    O    0.93288   0.28397   0.72914   1.000
    O412    O    0.67608   0.47408   0.74957   1.000
    O413    O    0.69132   0.38429   0.75456   1.000
    O414    O    0.17607   0.97407   0.74957   1.000
    O415    O    0.19131   0.88428   0.75456   1.000
    O416    O    0.67608   0.97407   0.74957   1.000
    O417    O    0.69132   0.88428   0.75456   1.000
    O418    O    0.17607   0.47408   0.74957   1.000
    O419    O    0.19131   0.38429   0.75456   1.000
    O420    O    0.52609   0.82379   0.74960   1.000
    O421    O    0.61578   0.80859   0.75459   1.000
    O422    O    0.52609   0.32380   0.74960   1.000
    O423    O    0.61578   0.30860   0.75459   1.000
    O424    O    0.02608   0.82379   0.74960   1.000
    O425    O    0.11577   0.80859   0.75459   1.000
    O426    O    0.02608   0.32380   0.74960   1.000
    O427    O    0.11577   0.30860   0.75459   1.000
    O428    O    0.90495   0.33367   0.75121   1.000
    O429    O    0.96578   0.33516   0.75282   1.000
    O430    O    0.40494   0.83365   0.75121   1.000
    O431    O    0.46579   0.83515   0.75282   1.000
    O432    O    0.40494   0.33366   0.75121   1.000
    O433    O    0.46578   0.33516   0.75282   1.000
    O434    O    0.90495   0.83366   0.75125   1.000
    O435    O    0.96579   0.83515   0.75286   1.000
    O436    O    0.66644   0.59534   0.75129   1.000
    O437    O    0.66483   0.53445   0.75287   1.000
    O438    O    0.66644   0.09535   0.75129   1.000
    O439    O    0.66484   0.03445   0.75287   1.000
    O440    O    0.16643   0.59534   0.75129   1.000
    O441    O    0.16483   0.53445   0.75287   1.000
    O442    O    0.16643   0.09535   0.75129   1.000
    O443    O    0.16483   0.03445   0.75287   1.000
    O444    O    0.09216   0.48243   0.79068   1.000
    O445    O    0.59217   0.98242   0.79068   1.000
    O446    O    0.59217   0.48243   0.79068   1.000
    O447    O    0.09217   0.98242   0.79068   1.000
    O448    O    0.51772   0.90783   0.79068   1.000
    O449    O    0.51772   0.40784   0.79068   1.000
    O450    O    0.01772   0.90783   0.79068   1.000
    O451    O    0.01771   0.40784   0.79068   1.000
    O452    O    0.72515   0.77501   0.80427   1.000
    O453    O    0.66046   0.83949   0.84057   1.000
    O454    O    0.22514   0.27502   0.80427   1.000
    O455    O    0.16045   0.33950   0.84057   1.000
    O456    O    0.22514   0.77501   0.80427   1.000
    O457    O    0.16045   0.83949   0.84057   1.000
    O458    O    0.72515   0.27502   0.80427   1.000
    O459    O    0.66046   0.33950   0.84057   1.000
    O460    O    0.98851   0.51122   0.80354   1.000
    O461    O    0.98851   0.01122   0.80354   1.000
    O462    O    0.48851   0.51122   0.80354   1.000
    O463    O    0.48851   0.01122   0.80354   1.000
    O464    O    0.06190   0.43819   0.87710   1.000
    O465    O    0.06190   0.93818   0.87710   1.000
    O466    O    0.56191   0.43819   0.87710   1.000
    O467    O    0.56191   0.93818   0.87710   1.000
    O468    O    0.11495   0.38505   0.92200   1.000
    O469    O    0.15478   0.34504   0.94618   1.000
    O470    O    0.11495   0.88504   0.92200   1.000
    O471    O    0.15478   0.84503   0.94618   1.000
    O472    O    0.61496   0.38505   0.92200   1.000
    O473    O    0.65479   0.34504   0.94618   1.000
    O474    O    0.61496   0.88504   0.92200   1.000
    O475    O    0.65479   0.84503   0.94618   1.000
    O476    O    0.68973   0.30995   0.98312   1.000
    O477    O    0.18972   0.30995   0.98312   1.000
    O478    O    0.18972   0.80994   0.98312   1.000
    O479    O    0.68973   0.80994   0.98312   1.000
loop_
    _geom_bond_atom_site_label_1
    _geom_bond_atom_site_label_2
    _geom_bond_distance
    _geom_bond_site_symmetry_2
    _ccdc_geom_bond_type
    C119   O216      0.67705      .   S
    C191   O216      0.67705      .   S
    C119   O217      0.54284      .   S
    C71    O217      0.54284      .   S
    C119   O218      0.66881  1_554   S
    C187   O218      0.66881      .   S
    C118   O219      0.67705      .   S
    C190   O219      0.67705      .   S
    C118   O220      0.54284      .   S
    C70    O220      0.54284      .   S
    C118   O221      0.66881  1_554   S
    C186   O221      0.66881      .   S
    C117   O222      0.67706      .   S
    C189   O222      0.67706      .   S
    C117   O223      0.54284      .   S
    C69    O223      0.54284      .   S
    C117   O224      0.66881  1_554   S
    C185   O224      0.66881      .   S
    C116   O225      0.67705      .   S
    C188   O225      0.67705      .   S
    C116   O226      0.54284      .   S
    C68    O226      0.54284      .   S
    C116   O227      0.66881  1_554   S
    C184   O227      0.66881      .   S
    C188   O228      1.18147      .   S
    C4     O228      1.18147      .   S
    C188   O229      0.67985      .   S
    C112   O229      0.67985  1_556   S
    C189   O230      1.18147      .   S
    C5     O230      1.18147      .   S
    C189   O231      0.67985      .   S
    C113   O231      0.67985  1_556   S
    C190   O232      1.18147      .   S
    C6     O232      1.18147      .   S
    C190   O233      0.67985      .   S
    C114   O233      0.67985  1_556   S
    C191   O234      1.18147      .   S
    C7     O234      1.18147      .   S
    C191   O235      0.67985      .   S
    C115   O235      0.67985  1_556   S
    C202   O236      1.31153      .   S
    C6     O236      1.31153      .   S
    C201   O237      1.31153      .   S
    C5     O237      1.31153      .   S
    C200   O238      1.31153      .   S
    C4     O238      1.31153      .   S
    C203   O239      1.31153      .   S
    C7     O239      1.31153      .   S
    C5     O240      1.14600      .   S
    C129   O240      1.14600      .   S
    C5     O241      1.14594      .   S
    C165   O241      1.14594      .   S
    C4     O242      1.14600      .   S
    C128   O242      1.14600      .   S
    C4     O243      1.14594      .   S
    C164   O243      1.14594      .   S
    C6     O244      1.14600      .   S
    C130   O244      1.14600      .   S
    C6     O245      1.14594      .   S
    C166   O245      1.14594      .   S
    C7     O246      1.14600      .   S
    C131   O246      1.14600      .   S
    C7     O247      1.14594      .   S
    C167   O247      1.14594      .   S
    C31    O248      0.54167      .   S
    C79    O248      0.54167      .   S
    C30    O249      0.54167      .   S
    C78    O249      0.54167      .   S
    C29    O250      0.54167      .   S
    C77    O250      0.54167      .   S
    C28    O251      0.54167      .   S
    C76    O251      0.54167      .   S
    C52    O252      0.54168      .   S
    C100   O252      0.54168      .   S
    C53    O253      0.54167      .   S
    C101   O253      0.54167      .   S
    C54    O254      0.54167      .   S
    C102   O254      0.54167      .   S
    C55    O255      0.54168      .   S
    C103   O255      0.54168      .   S
    C77    O256      0.67799      .   S
    C128   O256      0.67799      .   S
    C77    O257      0.66695      .   S
    C125   O257      0.66695      .   S
    C78    O258      0.67816  1_545   S
    C131   O258      0.67816      .   S
    C78    O259      0.66696      .   S
    C126   O259      0.66696      .   S
    C76    O260      0.67817  1_545   S
    C129   O260      0.67817      .   S
    C76    O261      0.66696      .   S
    C124   O261      0.66696      .   S
    C79    O262      0.67799      .   S
    C130   O262      0.67799      .   S
    C79    O263      0.66695      .   S
    C127   O263      0.66695      .   S
    C102   O264      0.67782  1_655   S
    C164   O264      0.67782      .   S
    C102   O265      0.66712      .   S
    C162   O265      0.66712      .   S
    C103   O266      0.67782  1_655   S
    C165   O266      0.67782      .   S
    C103   O267      0.66712      .   S
    C163   O267      0.66712      .   S
    C101   O268      0.67799      .   S
    C167   O268      0.67799      .   S
    C101   O269      0.66709      .   S
    C161   O269      0.66709      .   S
    C100   O270      0.67799      .   S
    C166   O270      0.67799      .   S
    C100   O271      0.66709      .   S
    C160   O271      0.66709      .   S
    C131   O272      0.67629      .   S
    C75    O272      0.67629      .   S
    C128   O273      0.67629      .   S
    C72    O273      0.67629      .   S
    C129   O274      0.67629      .   S
    C73    O274      0.67629      .   S
    C130   O275      0.67629      .   S
    C74    O275      0.67629      .   S
    C164   O276      0.67632      .   S
    C96    O276      0.67632      .   S
    C165   O277      0.67632      .   S
    C97    O277      0.67632      .   S
    C166   O278      0.67631      .   S
    C98    O278      0.67631      .   S
    C167   O279      0.67632      .   S
    C99    O279      0.67632      .   S
    C126   O280      0.69082      .   S
    C122   O280      0.69082      .   S
    C126   O281      1.16102      .   S
    C10    O281      1.16102      .   S
    C127   O282      0.69082      .   S
    C123   O282      0.69082      .   S
    C127   O283      1.16101      .   S
    C11    O283      1.16101      .   S
    C125   O284      0.69082      .   S
    C121   O284      0.69082      .   S
    C125   O285      1.16102      .   S
    C9     O285      1.16102      .   S
    C124   O286      0.69082      .   S
    C120   O286      0.69082      .   S
    C124   O287      1.16102      .   S
    C8     O287      1.16102      .   S
    C160   O288      0.69073      .   S
    C156   O288      0.69073      .   S
    C160   O289      1.16095      .   S
    C8     O289      1.16095      .   S
    C161   O290      0.69073      .   S
    C157   O290      0.69073      .   S
    C161   O291      1.16094      .   S
    C9     O291      1.16094      .   S
    C162   O292      0.69071      .   S
    C158   O292      0.69071      .   S
    C162   O293      1.16093      .   S
    C10    O293      1.16093      .   S
    C163   O294      0.69071      .   S
    C159   O294      0.69071      .   S
    C163   O295      1.16093      .   S
    C11    O295      1.16093      .   S
    C99    O296      0.54161      .   S
    C51    O296      0.54161      .   S
    C99    O297      0.66585      .   S
    C157   O297      0.66585      .   S
    C98    O298      0.54161      .   S
    C50    O298      0.54161      .   S
    C98    O299      0.66585      .   S
    C156   O299      0.66585      .   S
    C96    O300      0.54162      .   S
    C48    O300      0.54162      .   S
    C96    O301      0.66569      .   S
    C158   O301      0.66569  1_655   S
    C97    O302      0.54161      .   S
    C49    O302      0.54161      .   S
    C97    O303      0.66570      .   S
    C159   O303      0.66570  1_655   S
    C74    O304      0.54162      .   S
    C26    O304      0.54162      .   S
    C74    O305      0.66586      .   S
    C123   O305      0.66586      .   S
    C72    O306      0.54162      .   S
    C24    O306      0.54162      .   S
    C72    O307      0.66586      .   S
    C121   O307      0.66586      .   S
    C73    O308      0.54159      .   S
    C25    O308      0.54159      .   S
    C73    O309      0.66600      .   S
    C120   O309      0.66600  1_545   S
    C75    O310      0.54162      .   S
    C27    O310      0.54162      .   S
    C75    O311      0.66600      .   S
    C122   O311      0.66600  1_545   S
    C121   O312      1.13909      .   S
    C1     O312      1.13909      .   S
    C123   O313      1.13910      .   S
    C3     O313      1.13910      .   S
    C122   O314      1.13910      .   S
    C2     O314      1.13910      .   S
    C120   O315      1.13910      .   S
    C0     O315      1.13910      .   S
    C157   O316      1.13928      .   S
    C1     O316      1.13928      .   S
    C158   O317      1.13928      .   S
    C2     O317      1.13928      .   S
    C159   O318      1.13928      .   S
    C3     O318      1.13928      .   S
    C156   O319      1.13927      .   S
    C0     O319      1.13927      .   S
    C8     O320      1.26831      .   S
    C196   O320      1.26831      .   S
    C8     O321      1.21437      .   S
    C168   O321      1.21437      .   S
    C9     O322      1.26831      .   S
    C197   O322      1.26831      .   S
    C9     O323      1.21437      .   S
    C169   O323      1.21437      .   S
    C10    O324      1.26831      .   S
    C198   O324      1.26831      .   S
    C10    O325      1.21437      .   S
    C170   O325      1.21437      .   S
    C11    O326      1.26831      .   S
    C199   O326      1.26831      .   S
    C11    O327      1.21437      .   S
    C171   O327      1.21437      .   S
    C192   O328      1.20819      .   S
    C3     O328      1.20819  1_655   S
    C195   O329      1.20846      .   S
    C0     O329      1.20846  1_545   S
    C194   O330      1.20832      .   S
    C1     O330      1.20832      .   S
    C193   O331      1.20833      .   S
    C2     O331      1.20833  1_645   S
    C1     O332      1.12716      .   S
    C173   O332      1.12716      .   S
    C0     O333      1.12716      .   S
    C172   O333      1.12716      .   S
    C2     O334      1.12716      .   S
    C174   O334      1.12716      .   S
    C3     O335      1.12716      .   S
    C175   O335      1.12716      .   S
    C168   O336      0.69178      .   S
    C172   O336      0.69178      .   S
    C168   O337      0.66576      .   S
    C104   O337      0.66576      .   S
    C169   O338      0.69178      .   S
    C173   O338      0.69178      .   S
    C169   O339      0.66576      .   S
    C105   O339      0.66576      .   S
    C170   O340      0.69178      .   S
    C174   O340      0.69178      .   S
    C170   O341      0.66576      .   S
    C106   O341      0.66576      .   S
    C171   O342      0.69177      .   S
    C175   O342      0.69177      .   S
    C171   O343      0.66577      .   S
    C107   O343      0.66577      .   S
    C172   O344      0.66889      .   S
    C108   O344      0.66889      .   S
    C173   O345      0.66889      .   S
    C109   O345      0.66889      .   S
    C174   O346      0.66889      .   S
    C110   O346      0.66889      .   S
    C175   O347      0.66889      .   S
    C111   O347      0.66889      .   S
    C104   O348      0.54260      .   S
    C56    O348      0.54260      .   S
    C104   O349      0.67970      .   S
    C176   O349      0.67970      .   S
    C105   O350      0.54260      .   S
    C57    O350      0.54260      .   S
    C105   O351      0.67970      .   S
    C177   O351      0.67970      .   S
    C106   O352      0.54260      .   S
    C58    O352      0.54260      .   S
    C106   O353      0.67970      .   S
    C178   O353      0.67970      .   S
    C107   O354      0.54259      .   S
    C59    O354      0.54259      .   S
    C107   O355      0.67970      .   S
    C179   O355      0.67970      .   S
    C108   O356      0.67697      .   S
    C176   O356      0.67697      .   S
    C108   O357      0.54269      .   S
    C60    O357      0.54269      .   S
    C111   O358      0.67697      .   S
    C179   O358      0.67697      .   S
    C111   O359      0.54269      .   S
    C63    O359      0.54269      .   S
    C109   O360      0.67696      .   S
    C177   O360      0.67696      .   S
    C109   O361      0.54270      .   S
    C61    O361      0.54270      .   S
    C110   O362      0.67696      .   S
    C178   O362      0.67696      .   S
    C110   O363      0.54270      .   S
    C62    O363      0.54270      .   S
    C179   O364      1.18140      .   S
    C19    O364      1.18140      .   S
    C178   O365      1.18140      .   S
    C18    O365      1.18140      .   S
    C177   O366      1.18140      .   S
    C17    O366      1.18140      .   S
    C176   O367      1.18140      .   S
    C16    O367      1.18140      .   S
    C215   O368      1.31156      .   S
    C19    O368      1.31156      .   S
    C214   O369      1.31157      .   S
    C18    O369      1.31157      .   S
    C213   O370      1.31157      .   S
    C17    O370      1.31157      .   S
    C212   O371      1.31156      .   S
    C16    O371      1.31156      .   S
    C18    O372      1.14597      .   S
    C142   O372      1.14597      .   S
    C18    O373      1.14593      .   S
    C154   O373      1.14593      .   S
    C19    O374      1.14583      .   S
    C155   O374      1.14583      .   S
    C19    O375      1.14598      .   S
    C143   O375      1.14598      .   S
    C17    O376      1.14598      .   S
    C141   O376      1.14598      .   S
    C17    O377      1.14583      .   S
    C153   O377      1.14583      .   S
    C16    O378      1.14597      .   S
    C140   O378      1.14597      .   S
    C16    O379      1.14593      .   S
    C152   O379      1.14593      .   S
    C36    O380      0.54167      .   S
    C84    O380      0.54167      .   S
    C37    O381      0.54167      .   S
    C85    O381      0.54167      .   S
    C38    O382      0.54167      .   S
    C86    O382      0.54167      .   S
    C39    O383      0.54167      .   S
    C87    O383      0.54167      .   S
    C47    O384      0.54147      .   S
    C95    O384      0.54147      .   S
    C46    O385      0.54168      .   S
    C94    O385      0.54168      .   S
    C45    O386      0.54147      .   S
    C93    O386      0.54147      .   S
    C44    O387      0.54146      .   S
    C92    O387      0.54146      .   S
    C84    O388      0.67799      .   S
    C141   O388      0.67799      .   S
    C84    O389      0.66707      .   S
    C136   O389      0.66707      .   S
    C85    O390      0.67816  1_565   S
    C140   O390      0.67816      .   S
    C85    O391      0.66707      .   S
    C137   O391      0.66707      .   S
    C86    O392      0.67798      .   S
    C143   O392      0.67798      .   S
    C86    O393      0.66707      .   S
    C138   O393      0.66707      .   S
    C87    O394      0.67816  1_565   S
    C142   O394      0.67816      .   S
    C87    O395      0.66707      .   S
    C139   O395      0.66707      .   S
    C92    O396      0.67784  1_455   S
    C154   O396      0.67784      .   S
    C92    O397      0.66729      .   S
    C148   O397      0.66729      .   S
    C93    O398      0.67782  1_455   S
    C155   O398      0.67782      .   S
    C93    O399      0.66729      .   S
    C149   O399      0.66729      .   S
    C95    O400      0.67800      .   S
    C153   O400      0.67800      .   S
    C95    O401      0.66729      .   S
    C151   O401      0.66729      .   S
    C94    O402      0.67799      .   S
    C152   O402      0.67799      .   S
    C94    O403      0.66708      .   S
    C150   O403      0.66708      .   S
    C142   O404      0.67629      .   S
    C82    O404      0.67629      .   S
    C141   O405      0.67629      .   S
    C81    O405      0.67629      .   S
    C140   O406      0.67629      .   S
    C80    O406      0.67629      .   S
    C155   O407      0.67648      .   S
    C91    O407      0.67648      .   S
    C153   O408      0.67624      .   S
    C89    O408      0.67624      .   S
    C143   O409      0.67629      .   S
    C83    O409      0.67629      .   S
    C152   O410      0.67603      .   S
    C88    O410      0.67603      .   S
    C154   O411      0.67603      .   S
    C90    O411      0.67603      .   S
    C138   O412      0.69074      .   S
    C134   O412      0.69074      .   S
    C138   O413      1.16092      .   S
    C22    O413      1.16092      .   S
    C137   O414      0.69074      .   S
    C133   O414      0.69074      .   S
    C137   O415      1.16092      .   S
    C21    O415      1.16092      .   S
    C139   O416      0.69074      .   S
    C135   O416      0.69074      .   S
    C139   O417      1.16092      .   S
    C23    O417      1.16092      .   S
    C136   O418      0.69074      .   S
    C132   O418      0.69074      .   S
    C136   O419      1.16091      .   S
    C20    O419      1.16091      .   S
    C151   O420      0.69074      .   S
    C147   O420      0.69074      .   S
    C151   O421      1.16092      .   S
    C23    O421      1.16092      .   S
    C150   O422      0.69074      .   S
    C146   O422      0.69074      .   S
    C150   O423      1.16093      .   S
    C22    O423      1.16093      .   S
    C149   O424      0.69074      .   S
    C145   O424      0.69074      .   S
    C149   O425      1.16093      .   S
    C21    O425      1.16093      .   S
    C148   O426      0.69074      .   S
    C144   O426      0.69074      .   S
    C148   O427      1.16092      .   S
    C20    O427      1.16092      .   S
    C90    O428      0.54173      .   S
    C42    O428      0.54173      .   S
    C90    O429      0.66584      .   S
    C144   O429      0.66584  1_455   S
    C89    O430      0.54174      .   S
    C41    O430      0.54174      .   S
    C89    O431      0.66599      .   S
    C147   O431      0.66599      .   S
    C88    O432      0.54174      .   S
    C40    O432      0.54174      .   S
    C88    O433      0.66599      .   S
    C146   O433      0.66599      .   S
    C91    O434      0.54162      .   S
    C43    O434      0.54162      .   S
    C91    O435      0.66572      .   S
    C145   O435      0.66572  1_455   S
    C83    O436      0.54161      .   S
    C35    O436      0.54161      .   S
    C83    O437      0.66586      .   S
    C134   O437      0.66586      .   S
    C82    O438      0.54160      .   S
    C34    O438      0.54160      .   S
    C82    O439      0.66601      .   S
    C135   O439      0.66601  1_565   S
    C81    O440      0.54161      .   S
    C33    O440      0.54161      .   S
    C81    O441      0.66586      .   S
    C132   O441      0.66586      .   S
    C80    O442      0.54161      .   S
    C32    O442      0.54161      .   S
    C80    O443      0.66600      .   S
    C133   O443      0.66600  1_565   S
    C132   O444      1.13908      .   S
    C12    O444      1.13908      .   S
    C135   O445      1.13908      .   S
    C15    O445      1.13908      .   S
    C134   O446      1.13908      .   S
    C14    O446      1.13908      .   S
    C133   O447      1.13908      .   S
    C13    O447      1.13908      .   S
    C147   O448      1.13926      .   S
    C15    O448      1.13926      .   S
    C146   O449      1.13926      .   S
    C14    O449      1.13926      .   S
    C145   O450      1.13926      .   S
    C13    O450      1.13926      .   S
    C144   O451      1.13926      .   S
    C12    O451      1.13926      .   S
    C23    O452      1.26837      .   S
    C211   O452      1.26837      .   S
    C23    O453      1.21440      .   S
    C183   O453      1.21440      .   S
    C20    O454      1.26838      .   S
    C208   O454      1.26838      .   S
    C20    O455      1.21440      .   S
    C180   O455      1.21440      .   S
    C21    O456      1.26838      .   S
    C209   O456      1.26838      .   S
    C21    O457      1.21440      .   S
    C181   O457      1.21440      .   S
    C22    O458      1.26837      .   S
    C210   O458      1.26837      .   S
    C22    O459      1.21440      .   S
    C182   O459      1.21440      .   S
    C207   O460      1.20822      .   S
    C12    O460      1.20822  1_455   S
    C206   O461      1.20836      .   S
    C13    O461      1.20836  1_465   S
    C205   O462      1.20834      .   S
    C14    O462      1.20834      .   S
    C204   O463      1.20848      .   S
    C15    O463      1.20848  1_565   S
    C12    O464      1.12714      .   S
    C184   O464      1.12714      .   S
    C13    O465      1.12714      .   S
    C185   O465      1.12714      .   S
    C14    O466      1.12714      .   S
    C186   O466      1.12714      .   S
    C15    O467      1.12714      .   S
    C187   O467      1.12714      .   S
    C180   O468      0.69178      .   S
    C184   O468      0.69178      .   S
    C180   O469      0.66576      .   S
    C112   O469      0.66576      .   S
    C181   O470      0.69178      .   S
    C185   O470      0.69178      .   S
    C181   O471      0.66576      .   S
    C113   O471      0.66576      .   S
    C182   O472      0.69178      .   S
    C186   O472      0.69178      .   S
    C182   O473      0.66576      .   S
    C114   O473      0.66576      .   S
    C183   O474      0.69178      .   S
    C187   O474      0.69178      .   S
    C183   O475      0.66576      .   S
    C115   O475      0.66576      .   S
    C114   O476      0.54261      .   S
    C66    O476      0.54261      .   S
    C112   O477      0.54260      .   S
    C64    O477      0.54260      .   S
    C113   O478      0.54260      .   S
    C65    O478      0.54260      .   S
    C115   O479      0.54260      .   S
    C67    O479      0.54260      .   S
