# CIF file generated by openbabel 2.4.90, see http://openbabel.sf.net
data_I
_chemical_name_common ''
_cell_length_a 17.555
_cell_length_b 17.545
_cell_length_c 15.913
_cell_angle_alpha 90
_cell_angle_beta 89.999
_cell_angle_gamma 92.602
_space_group_name_H-M_alt 'P 1'
_space_group_name_Hall 'P 1'
loop_
    _symmetry_equiv_pos_as_xyz
    x,y,z
loop_
    _atom_site_label
    _atom_site_type_symbol
    _atom_site_fract_x
    _atom_site_fract_y
    _atom_site_fract_z
    _atom_site_occupancy
    Zr0     Zr   0.46494   0.03497   0.32065   1.000
    Zr1     Zr   0.46494   0.53496   0.32065   1.000
    Zr2     Zr   0.96495   0.03497   0.32065   1.000
    Zr3     Zr   0.96495   0.53496   0.32065   1.000
    Zr4     Zr   0.17309   0.32681   0.18737   1.000
    Zr5     Zr   0.17309   0.82680   0.18737   1.000
    Zr6     Zr   0.67310   0.32681   0.18737   1.000
    Zr7     Zr   0.67310   0.82680   0.18737   1.000
    Zr8     Zr   0.32028   0.17969   0.27074   1.000
    Zr9     Zr   0.32028   0.67968   0.27074   1.000
    Zr10    Zr   0.82029   0.17969   0.27074   1.000
    Zr11    Zr   0.82029   0.67968   0.27074   1.000
    Zr12    Zr   0.03507   0.46499   0.82063   1.000
    Zr13    Zr   0.03507   0.96498   0.82063   1.000
    Zr14    Zr   0.53508   0.46499   0.82063   1.000
    Zr15    Zr   0.53508   0.96498   0.82063   1.000
    Zr16    Zr   0.32692   0.17316   0.68737   1.000
    Zr17    Zr   0.32692   0.67315   0.68737   1.000
    Zr18    Zr   0.82693   0.17316   0.68737   1.000
    Zr19    Zr   0.82693   0.67315   0.68737   1.000
    Zr20    Zr   0.17973   0.32028   0.77070   1.000
    Zr21    Zr   0.17973   0.82027   0.77070   1.000
    Zr22    Zr   0.67974   0.32028   0.77070   1.000
    Zr23    Zr   0.67974   0.82027   0.77070   1.000
    Zr24    Zr   0.05806   0.44252   0.28649   1.000
    Zr25    Zr   0.05806   0.94251   0.28649   1.000
    Zr26    Zr   0.55807   0.44251   0.28649   1.000
    Zr27    Zr   0.55807   0.94251   0.28649   1.000
    Zr28    Zr   0.22946   0.27021   0.33786   1.000
    Zr29    Zr   0.22947   0.77020   0.33786   1.000
    Zr30    Zr   0.72947   0.27021   0.33786   1.000
    Zr31    Zr   0.72948   0.77020   0.33786   1.000
    Zr32    Zr   0.26912   0.23076   0.12643   1.000
    Zr33    Zr   0.26912   0.73075   0.12643   1.000
    Zr34    Zr   0.76913   0.23076   0.12643   1.000
    Zr35    Zr   0.76913   0.73075   0.12643   1.000
    Zr36    Zr   0.44195   0.05745   0.78645   1.000
    Zr37    Zr   0.44195   0.55744   0.78645   1.000
    Zr38    Zr   0.94196   0.05745   0.78645   1.000
    Zr39    Zr   0.94196   0.55744   0.78645   1.000
    Zr40    Zr   0.27054   0.22976   0.83784   1.000
    Zr41    Zr   0.27054   0.72975   0.83784   1.000
    Zr42    Zr   0.77055   0.22976   0.83784   1.000
    Zr43    Zr   0.77055   0.72975   0.83784   1.000
    Zr44    Zr   0.23090   0.26922   0.62641   1.000
    Zr45    Zr   0.23090   0.76921   0.62641   1.000
    Zr46    Zr   0.73091   0.26922   0.62641   1.000
    Zr47    Zr   0.73091   0.76921   0.62641   1.000
    O48     O    0.72111   0.27878   0.15690   1.000
    O49     O    0.22110   0.77877   0.15690   1.000
    O50     O    0.22110   0.27878   0.15690   1.000
    O51     O    0.72111   0.77877   0.15690   1.000
    O52     O    0.27487   0.22495   0.30430   1.000
    O53     O    0.27487   0.72494   0.30430   1.000
    O54     O    0.77488   0.22495   0.30430   1.000
    O55     O    0.77488   0.72494   0.30430   1.000
    O56     O    0.01151   0.48874   0.30357   1.000
    O57     O    0.51151   0.98874   0.30357   1.000
    O58     O    0.51151   0.48874   0.30357   1.000
    O59     O    0.01151   0.98874   0.30357   1.000
    O60     O    0.77892   0.72118   0.65689   1.000
    O61     O    0.77892   0.22119   0.65689   1.000
    O62     O    0.27891   0.72118   0.65689   1.000
    O63     O    0.27891   0.22119   0.65689   1.000
    O64     O    0.72515   0.77501   0.80427   1.000
    O65     O    0.22514   0.27502   0.80427   1.000
    O66     O    0.22514   0.77501   0.80427   1.000
    O67     O    0.72515   0.27502   0.80427   1.000
    O68     O    0.98851   0.51122   0.80354   1.000
    O69     O    0.98851   0.01122   0.80354   1.000
    O70     O    0.48851   0.51122   0.80354   1.000
    O71     O    0.48851   0.01122   0.80354   1.000
    C72     C    0.62649   0.37348   0.99041   1.000
    O73     O    0.64347   0.35649   0.91549   1.000
    O74     O    0.59420   0.40584   0.93375   1.000
    O75     O    0.64070   0.35925   0.05472   1.000
    C76     C    0.28359   0.97716   0.23047   1.000
    O77     O    0.34572   0.99735   0.26058   1.000
    O78     O    0.24716   0.92888   0.21541   1.000
    O79     O    0.29614   0.04642   0.24252   1.000
    C80     C    0.52268   0.21647   0.23051   1.000
    O81     O    0.45346   0.20392   0.24257   1.000
    O82     O    0.57098   0.25286   0.21545   1.000
    O83     O    0.50249   0.15430   0.26061   1.000
    C84     C    0.12648   0.87347   0.99041   1.000
    O85     O    0.09419   0.90583   0.93375   1.000
    O86     O    0.14069   0.85924   0.05472   1.000
    O87     O    0.14347   0.85648   0.91549   1.000
    C88     C    0.21642   0.02280   0.73044   1.000
    O89     O    0.20386   0.95354   0.74250   1.000
    O90     O    0.15429   0.00261   0.76056   1.000
    O91     O    0.25285   0.07109   0.71539   1.000
    C92     C    0.47734   0.28350   0.73047   1.000
    O93     O    0.42904   0.24712   0.71542   1.000
    O94     O    0.49753   0.34567   0.76058   1.000
    O95     O    0.54656   0.29605   0.74253   1.000
    C96     C    0.71643   0.52280   0.73044   1.000
    O97     O    0.65430   0.50262   0.76056   1.000
    O98     O    0.75286   0.57108   0.71539   1.000
    O99     O    0.70387   0.45355   0.74250   1.000
    C100    C    0.02268   0.71647   0.23051   1.000
    O101    O    0.00249   0.65429   0.26061   1.000
    O102    O    0.95347   0.70391   0.24257   1.000
    O103    O    0.07098   0.75285   0.21545   1.000
    C104    C    0.87354   0.62647   0.49044   1.000
    O105    O    0.85656   0.64347   0.41552   1.000
    O106    O    0.90583   0.59412   0.43378   1.000
    O107    O    0.85934   0.64071   0.55474   1.000
    C108    C    0.97734   0.78349   0.73046   1.000
    O109    O    0.99753   0.84566   0.76057   1.000
    O110    O    0.04656   0.79604   0.74252   1.000
    O111    O    0.92904   0.74711   0.71540   1.000
    C112    C    0.78360   0.47716   0.23047   1.000
    O113    O    0.74717   0.42888   0.21541   1.000
    O114    O    0.84573   0.49734   0.26058   1.000
    O115    O    0.79615   0.54642   0.24252   1.000
    C116    C    0.37353   0.12648   0.49044   1.000
    O117    O    0.40582   0.09413   0.43378   1.000
    O118    O    0.35655   0.14348   0.41552   1.000
    O119    O    0.35932   0.14072   0.55474   1.000
    C120    C    0.52268   0.71647   0.23051   1.000
    O121    O    0.45346   0.70391   0.24257   1.000
    O122    O    0.57098   0.75285   0.21545   1.000
    O123    O    0.50249   0.65429   0.26061   1.000
    C124    C    0.87354   0.12649   0.49044   1.000
    O125    O    0.85933   0.14072   0.55474   1.000
    O126    O    0.85656   0.14348   0.41552   1.000
    O127    O    0.90583   0.09413   0.43378   1.000
    C128    C    0.71643   0.02280   0.73044   1.000
    O129    O    0.65430   0.00261   0.76056   1.000
    O130    O    0.75286   0.07109   0.71539   1.000
    O131    O    0.70387   0.95354   0.74250   1.000
    C132    C    0.37353   0.62648   0.49044   1.000
    O133    O    0.35655   0.64347   0.41552   1.000
    O134    O    0.40582   0.59412   0.43378   1.000
    O135    O    0.35933   0.64071   0.55474   1.000
    C136    C    0.78360   0.97716   0.23047   1.000
    O137    O    0.74717   0.92888   0.21541   1.000
    O138    O    0.84573   0.99735   0.26058   1.000
    O139    O    0.79615   0.04642   0.24252   1.000
    C140    C    0.12648   0.37348   0.99041   1.000
    O141    O    0.14069   0.35925   0.05472   1.000
    O142    O    0.09419   0.40584   0.93375   1.000
    O143    O    0.14346   0.35649   0.91549   1.000
    C144    C    0.97734   0.28350   0.73046   1.000
    O145    O    0.92904   0.24712   0.71541   1.000
    O146    O    0.04655   0.29605   0.74252   1.000
    O147    O    0.99753   0.34567   0.76057   1.000
    C148    C    0.21642   0.52280   0.73044   1.000
    O149    O    0.25285   0.57108   0.71539   1.000
    O150    O    0.15429   0.50262   0.76056   1.000
    O151    O    0.20386   0.45355   0.74250   1.000
    C152    C    0.28359   0.47716   0.23047   1.000
    O153    O    0.29614   0.54642   0.24252   1.000
    O154    O    0.34572   0.49734   0.26058   1.000
    O155    O    0.24716   0.42888   0.21541   1.000
    C156    C    0.62649   0.87347   0.99041   1.000
    O157    O    0.64070   0.85924   0.05472   1.000
    O158    O    0.59420   0.90583   0.93375   1.000
    O159    O    0.64348   0.85648   0.91549   1.000
    C160    C    0.02268   0.21648   0.23051   1.000
    O161    O    0.00249   0.15430   0.26061   1.000
    O162    O    0.07098   0.25286   0.21545   1.000
    O163    O    0.95346   0.20392   0.24257   1.000
    C164    C    0.47734   0.78349   0.73045   1.000
    O165    O    0.42904   0.74711   0.71539   1.000
    O166    O    0.54656   0.79604   0.74252   1.000
    O167    O    0.49753   0.84566   0.76056   1.000
loop_
    _geom_bond_atom_site_label_1
    _geom_bond_atom_site_label_2
    _geom_bond_distance
    _geom_bond_site_symmetry_2
    _ccdc_geom_bond_type
    Zr34   O48       1.31153      .   S
    Zr6    O48       1.31153      .   S
    Zr33   O49       1.31153      .   S
    Zr5    O49       1.31153      .   S
    Zr32   O50       1.31153      .   S
    Zr4    O50       1.31153      .   S
    Zr35   O51       1.31153      .   S
    Zr7    O51       1.31153      .   S
    Zr8    O52       1.26831      .   S
    Zr28   O52       1.26831      .   S
    Zr9    O53       1.26831      .   S
    Zr29   O53       1.26831      .   S
    Zr10   O54       1.26831      .   S
    Zr30   O54       1.26831      .   S
    Zr11   O55       1.26831      .   S
    Zr31   O55       1.26831      .   S
    Zr24   O56       1.20819      .   S
    Zr3    O56       1.20819  1_655   S
    Zr27   O57       1.20846      .   S
    Zr0    O57       1.20846  1_545   S
    Zr26   O58       1.20832      .   S
    Zr1    O58       1.20832      .   S
    Zr25   O59       1.20833      .   S
    Zr2    O59       1.20833  1_645   S
    Zr47   O60       1.31156      .   S
    Zr19   O60       1.31156      .   S
    Zr46   O61       1.31157      .   S
    Zr18   O61       1.31157      .   S
    Zr45   O62       1.31157      .   S
    Zr17   O62       1.31157      .   S
    Zr44   O63       1.31156      .   S
    Zr16   O63       1.31156      .   S
    Zr23   O64       1.26837      .   S
    Zr43   O64       1.26837      .   S
    Zr20   O65       1.26838      .   S
    Zr40   O65       1.26838      .   S
    Zr21   O66       1.26838      .   S
    Zr41   O66       1.26838      .   S
    Zr22   O67       1.26837      .   S
    Zr42   O67       1.26837      .   S
    Zr39   O68       1.20822      .   S
    Zr12   O68       1.20822  1_455   S
    Zr38   O69       1.20836      .   S
    Zr13   O69       1.20836  1_465   S
    Zr37   O70       1.20834      .   S
    Zr14   O70       1.20834      .   S
    Zr36   O71       1.20848      .   S
    Zr15   O71       1.20848  1_565   S
    C72    O73       1.26776      .   S
    Zr22   O73       2.48077      .   S
    C72    O74       1.21890      .   S
    Zr14   O74       2.34367      .   S
    C72    O75       1.08513  1_556   S
    Zr6    O75       2.26549      .   S
    C76    O77       1.22865      .   S
    Zr0    O77       2.36738  1_545   S
    C76    O78       1.06533      .   S
    Zr5    O78       2.21039      .   S
    C76    O79       1.24002  1_565   S
    Zr8    O79       2.39964      .   S
    C80    O81       1.23997      .   S
    Zr8    O81       2.39955      .   S
    C80    O82       1.06529      .   S
    Zr6    O82       2.21030      .   S
    C80    O83       1.22871      .   S
    Zr0    O83       2.36759      .   S
    C84    O85       1.21890      .   S
    Zr13   O85       2.34367      .   S
    C84    O86       1.08513  1_556   S
    Zr5    O86       2.26549      .   S
    C84    O87       1.26776      .   S
    Zr21   O87       2.48077      .   S
    C88    O89       1.24003  1_545   S
    Zr21   O89       2.39957      .   S
    C88    O90       1.22862      .   S
    Zr13   O90       2.36733  1_565   S
    C88    O91       1.06533      .   S
    Zr16   O91       2.21036      .   S
    C92    O93       1.06525      .   S
    Zr16   O93       2.21025      .   S
    C92    O94       1.22874      .   S
    Zr14   O94       2.36761      .   S
    C92    O95       1.23997      .   S
    Zr22   O95       2.39954      .   S
    C96    O97       1.22862      .   S
    Zr14   O97       2.36733      .   S
    C96    O98       1.06527      .   S
    Zr19   O98       2.21029      .   S
    C96    O99       1.23996      .   S
    Zr22   O99       2.39950      .   S
    C100   O101      1.22868      .   S
    Zr3    O101      2.36758  1_655   S
    C100   O102      1.23990  1_455   S
    Zr11   O102      2.39947      .   S
    C100   O103      1.06522      .   S
    Zr5    O103      2.21022      .   S
    C104   O105      1.26770      .   S
    Zr11   O105      2.48068      .   S
    C104   O106      1.21889      .   S
    Zr3    O106      2.34367      .   S
    C104   O107      1.08499      .   S
    Zr19   O107      2.26527      .   S
    C108   O109      1.22875      .   S
    Zr13   O109      2.36763  1_455   S
    C108   O110      1.23992  1_655   S
    Zr21   O110      2.39949      .   S
    C108   O111      1.06522      .   S
    Zr19   O111      2.21010      .   S
    C112   O113      1.06527      .   S
    Zr6    O113      2.21032      .   S
    C112   O114      1.22864      .   S
    Zr3    O114      2.36737      .   S
    C112   O115      1.23994      .   S
    Zr11   O115      2.39956      .   S
    C116   O117      1.21889      .   S
    Zr0    O117      2.34367      .   S
    C116   O118      1.26770      .   S
    Zr8    O118      2.48068      .   S
    C116   O119      1.08499      .   S
    Zr16   O119      2.26527      .   S
    C120   O121      1.23997      .   S
    Zr9    O121      2.39954      .   S
    C120   O122      1.06529      .   S
    Zr7    O122      2.21029      .   S
    C120   O123      1.22871      .   S
    Zr1    O123      2.36760      .   S
    C124   O125      1.08499      .   S
    Zr18   O125      2.26527      .   S
    C124   O126      1.26770      .   S
    Zr10   O126      2.48068      .   S
    C124   O127      1.21889      .   S
    Zr2    O127      2.34367      .   S
    C128   O129      1.22862      .   S
    Zr15   O129      2.36733  1_565   S
    C128   O130      1.06533      .   S
    Zr18   O130      2.21036      .   S
    C128   O131      1.24003  1_545   S
    Zr23   O131      2.39957      .   S
    C132   O133      1.26770      .   S
    Zr9    O133      2.48068      .   S
    C132   O134      1.21889      .   S
    Zr1    O134      2.34367      .   S
    C132   O135      1.08499      .   S
    Zr17   O135      2.26527      .   S
    C136   O137      1.06534      .   S
    Zr7    O137      2.21040      .   S
    C136   O138      1.22864      .   S
    Zr2    O138      2.36737  1_545   S
    C136   O139      1.24001  1_565   S
    Zr10   O139      2.39963      .   S
    C140   O141      1.08513  1_556   S
    Zr4    O141      2.26549      .   S
    C140   O142      1.21889      .   S
    Zr12   O142      2.34367      .   S
    C140   O143      1.26776      .   S
    Zr20   O143      2.48076      .   S
    C144   O145      1.06515      .   S
    Zr18   O145      2.21015      .   S
    C144   O146      1.23992  1_655   S
    Zr20   O146      2.39948      .   S
    C144   O147      1.22875      .   S
    Zr12   O147      2.36763  1_455   S
    C148   O149      1.06527      .   S
    Zr17   O149      2.21029      .   S
    C148   O150      1.22862      .   S
    Zr12   O150      2.36733      .   S
    C148   O151      1.23996      .   S
    Zr20   O151      2.39950      .   S
    C152   O153      1.23994      .   S
    Zr9    O153      2.39957      .   S
    C152   O154      1.22864      .   S
    Zr1    O154      2.36736      .   S
    C152   O155      1.06528      .   S
    Zr4    O155      2.21033      .   S
    C156   O157      1.08513  1_556   S
    Zr7    O157      2.26549      .   S
    C156   O158      1.21889      .   S
    Zr15   O158      2.34367      .   S
    C156   O159      1.26776      .   S
    Zr23   O159      2.48076      .   S
    C160   O161      1.22868      .   S
    Zr2    O161      2.36758  1_655   S
    C160   O162      1.06522      .   S
    Zr4    O162      2.21022      .   S
    C160   O163      1.23990  1_455   S
    Zr10   O163      2.39947      .   S
    C164   O165      1.06527      .   S
    Zr17   O165      2.21015      .   S
    C164   O166      1.24000      .   S
    Zr23   O166      2.39957      .   S
    C164   O167      1.22880      .   S
    Zr15   O167      2.36768      .   S
