# CIF file generated by openbabel 2.4.90, see http://openbabel.sf.net
data_I
_chemical_name_common ''
_cell_length_a 17.555
_cell_length_b 17.545
_cell_length_c 15.913
_cell_angle_alpha 90
_cell_angle_beta 89.999
_cell_angle_gamma 92.602
_space_group_name_H-M_alt 'P 1'
_space_group_name_Hall 'P 1'
loop_
    _symmetry_equiv_pos_as_xyz
    x,y,z
loop_
    _atom_site_label
    _atom_site_type_symbol
    _atom_site_fract_x
    _atom_site_fract_y
    _atom_site_fract_z
    _atom_site_occupancy
    Zr0     Zr   0.46494   0.03497   0.32065   1.000
    Zr1     Zr   0.46494   0.53496   0.32065   1.000
    Zr2     Zr   0.96495   0.03497   0.32065   1.000
    Zr3     Zr   0.96495   0.53496   0.32065   1.000
    Zr4     Zr   0.17309   0.32681   0.18737   1.000
    Zr5     Zr   0.17309   0.82680   0.18737   1.000
    Zr6     Zr   0.67310   0.32681   0.18737   1.000
    Zr7     Zr   0.67310   0.82680   0.18737   1.000
    Zr8     Zr   0.32028   0.17969   0.27074   1.000
    Zr9     Zr   0.32028   0.67968   0.27074   1.000
    Zr10    Zr   0.82029   0.17969   0.27074   1.000
    Zr11    Zr   0.82029   0.67968   0.27074   1.000
    Zr12    Zr   0.03507   0.46499   0.82063   1.000
    Zr13    Zr   0.03507   0.96498   0.82063   1.000
    Zr14    Zr   0.53508   0.46499   0.82063   1.000
    Zr15    Zr   0.53508   0.96498   0.82063   1.000
    Zr16    Zr   0.32692   0.17316   0.68737   1.000
    Zr17    Zr   0.32692   0.67315   0.68737   1.000
    Zr18    Zr   0.82693   0.17316   0.68737   1.000
    Zr19    Zr   0.82693   0.67315   0.68737   1.000
    Zr20    Zr   0.17973   0.32028   0.77070   1.000
    Zr21    Zr   0.17973   0.82027   0.77070   1.000
    Zr22    Zr   0.67974   0.32028   0.77070   1.000
    Zr23    Zr   0.67974   0.82027   0.77070   1.000
    Zr24    Zr   0.34753   0.37832   0.25761   1.000
    Zr25    Zr   0.34753   0.87831   0.25760   1.000
    Zr26    Zr   0.84754   0.37832   0.25761   1.000
    Zr27    Zr   0.84754   0.87831   0.25761   1.000
    Zr28    Zr   0.18490   0.03451   0.18792   1.000
    Zr29    Zr   0.18491   0.53450   0.18792   1.000
    Zr30    Zr   0.68491   0.03451   0.18792   1.000
    Zr31    Zr   0.68492   0.53450   0.18792   1.000
    Zr32    Zr   0.15247   0.12165   0.75757   1.000
    Zr33    Zr   0.15247   0.62164   0.75757   1.000
    Zr34    Zr   0.65248   0.12165   0.75757   1.000
    Zr35    Zr   0.65248   0.62164   0.75757   1.000
    Zr36    Zr   0.31510   0.46547   0.68789   1.000
    Zr37    Zr   0.31511   0.96546   0.68789   1.000
    Zr38    Zr   0.81511   0.46547   0.68789   1.000
    Zr39    Zr   0.81512   0.96546   0.68789   1.000
    Zr40    Zr   0.37868   0.34769   0.75752   1.000
    Zr41    Zr   0.37868   0.84768   0.75752   1.000
    Zr42    Zr   0.87869   0.34769   0.75752   1.000
    Zr43    Zr   0.87869   0.84768   0.75752   1.000
    Zr44    Zr   0.03446   0.18462   0.68802   1.000
    Zr45    Zr   0.03446   0.68461   0.68802   1.000
    Zr46    Zr   0.53447   0.18462   0.68802   1.000
    Zr47    Zr   0.53447   0.68461   0.68802   1.000
    Zr48    Zr   0.12133   0.15229   0.25756   1.000
    Zr49    Zr   0.12133   0.65228   0.25756   1.000
    Zr50    Zr   0.62134   0.15229   0.25756   1.000
    Zr51    Zr   0.62134   0.65228   0.25756   1.000
    Zr52    Zr   0.46555   0.31535   0.18804   1.000
    Zr53    Zr   0.46555   0.81535   0.18804   1.000
    Zr54    Zr   0.96556   0.31536   0.18804   1.000
    Zr55    Zr   0.96556   0.81535   0.18804   1.000
    Zr56    Zr   0.28897   0.21143   0.48435   1.000
    Zr57    Zr   0.28898   0.71142   0.48435   1.000
    Zr58    Zr   0.78898   0.21143   0.48435   1.000
    Zr59    Zr   0.78899   0.71142   0.48435   1.000
    Zr60    Zr   0.44831   0.05133   0.55436   1.000
    Zr61    Zr   0.44831   0.55132   0.55436   1.000
    Zr62    Zr   0.94832   0.05133   0.55436   1.000
    Zr63    Zr   0.94832   0.55132   0.55436   1.000
    Zr64    Zr   0.21104   0.28854   0.98432   1.000
    Zr65    Zr   0.21104   0.78853   0.98432   1.000
    Zr66    Zr   0.71105   0.28854   0.98432   1.000
    Zr67    Zr   0.71105   0.78853   0.98432   1.000
    Zr68    Zr   0.05170   0.44864   0.05435   1.000
    Zr69    Zr   0.05170   0.94863   0.05435   1.000
    Zr70    Zr   0.55171   0.44864   0.05435   1.000
    Zr71    Zr   0.55171   0.94863   0.05435   1.000
    Zr72    Zr   0.31961   0.43093   0.24504   1.000
    Zr73    Zr   0.31961   0.93092   0.24504   1.000
    Zr74    Zr   0.81962   0.43093   0.24504   1.000
    Zr75    Zr   0.81962   0.93092   0.24504   1.000
    Zr76    Zr   0.23684   0.01025   0.21022   1.000
    Zr77    Zr   0.23684   0.51024   0.21022   1.000
    Zr78    Zr   0.73685   0.01025   0.21022   1.000
    Zr79    Zr   0.73685   0.51024   0.21022   1.000
    Zr80    Zr   0.18039   0.06904   0.74501   1.000
    Zr81    Zr   0.18039   0.56903   0.74501   1.000
    Zr82    Zr   0.68040   0.06904   0.74501   1.000
    Zr83    Zr   0.68040   0.56903   0.74501   1.000
    Zr84    Zr   0.26317   0.48973   0.71019   1.000
    Zr85    Zr   0.26317   0.98972   0.71019   1.000
    Zr86    Zr   0.76318   0.48973   0.71019   1.000
    Zr87    Zr   0.76318   0.98972   0.71019   1.000
    Zr88    Zr   0.43120   0.31964   0.74490   1.000
    Zr89    Zr   0.43121   0.81963   0.74490   1.000
    Zr90    Zr   0.93121   0.31964   0.74490   1.000
    Zr91    Zr   0.93122   0.81963   0.74498   1.000
    Zr92    Zr   0.01031   0.23665   0.71020   1.000
    Zr93    Zr   0.01031   0.73664   0.71020   1.000
    Zr94    Zr   0.51032   0.23665   0.71028   1.000
    Zr95    Zr   0.51032   0.73664   0.71020   1.000
    Zr96    Zr   0.06881   0.18034   0.24502   1.000
    Zr97    Zr   0.06881   0.68033   0.24502   1.000
    Zr98    Zr   0.56881   0.18034   0.24502   1.000
    Zr99    Zr   0.56882   0.68033   0.24502   1.000
    Zr100   Zr   0.48970   0.26332   0.21030   1.000
    Zr101   Zr   0.48970   0.76332   0.21030   1.000
    Zr102   Zr   0.98971   0.26333   0.21030   1.000
    Zr103   Zr   0.98971   0.76332   0.21030   1.000
    Zr104   Zr   0.33162   0.16860   0.48194   1.000
    Zr105   Zr   0.33162   0.66859   0.48194   1.000
    Zr106   Zr   0.83163   0.16860   0.48194   1.000
    Zr107   Zr   0.83163   0.66859   0.48194   1.000
    Zr108   Zr   0.41236   0.08747   0.51764   1.000
    Zr109   Zr   0.41236   0.58746   0.51764   1.000
    Zr110   Zr   0.91237   0.08747   0.51764   1.000
    Zr111   Zr   0.91237   0.58746   0.51764   1.000
    Zr112   Zr   0.16839   0.33137   0.98191   1.000
    Zr113   Zr   0.16840   0.83136   0.98191   1.000
    Zr114   Zr   0.66840   0.33137   0.98191   1.000
    Zr115   Zr   0.66841   0.83136   0.98191   1.000
    Zr116   Zr   0.08765   0.41250   0.01760   1.000
    Zr117   Zr   0.08765   0.91249   0.01760   1.000
    Zr118   Zr   0.58766   0.41250   0.01760   1.000
    Zr119   Zr   0.58766   0.91249   0.01760   1.000
    Zr120   Zr   0.35075   0.00010   0.26075   1.000
    Zr121   Zr   0.35075   0.50009   0.26075   1.000
    Zr122   Zr   0.85076   0.00010   0.26075   1.000
    Zr123   Zr   0.85076   0.50009   0.26075   1.000
    Zr124   Zr   0.29712   0.05167   0.23840   1.000
    Zr125   Zr   0.29712   0.55166   0.23840   1.000
    Zr126   Zr   0.79713   0.05167   0.23840   1.000
    Zr127   Zr   0.79713   0.55166   0.23840   1.000
    Zr128   Zr   0.24836   0.43439   0.21333   1.000
    Zr129   Zr   0.24837   0.93438   0.21333   1.000
    Zr130   Zr   0.74838   0.43439   0.21333   1.000
    Zr131   Zr   0.74838   0.93438   0.21333   1.000
    Zr132   Zr   0.14926   0.49987   0.76072   1.000
    Zr133   Zr   0.14926   0.99986   0.76072   1.000
    Zr134   Zr   0.64926   0.49987   0.76072   1.000
    Zr135   Zr   0.64927   0.99986   0.76072   1.000
    Zr136   Zr   0.20289   0.44830   0.73841   1.000
    Zr137   Zr   0.20289   0.94829   0.73841   1.000
    Zr138   Zr   0.70290   0.44830   0.73841   1.000
    Zr139   Zr   0.70290   0.94829   0.73841   1.000
    Zr140   Zr   0.25164   0.06558   0.71330   1.000
    Zr141   Zr   0.25164   0.56557   0.71330   1.000
    Zr142   Zr   0.75165   0.06558   0.71330   1.000
    Zr143   Zr   0.75165   0.56557   0.71330   1.000
    Zr144   Zr   0.00036   0.35068   0.76073   1.000
    Zr145   Zr   0.00036   0.85067   0.76073   1.000
    Zr146   Zr   0.50037   0.35068   0.76073   1.000
    Zr147   Zr   0.50037   0.85067   0.76073   1.000
    Zr148   Zr   0.05180   0.29691   0.73847   1.000
    Zr149   Zr   0.05181   0.79690   0.73847   1.000
    Zr150   Zr   0.55181   0.29691   0.73847   1.000
    Zr151   Zr   0.55182   0.79690   0.73847   1.000
    Zr152   Zr   0.43454   0.24831   0.71337   1.000
    Zr153   Zr   0.43454   0.74830   0.71330   1.000
    Zr154   Zr   0.93455   0.24831   0.71337   1.000
    Zr155   Zr   0.93455   0.74830   0.71330   1.000
    Zr156   Zr   0.49965   0.14929   0.26076   1.000
    Zr157   Zr   0.49966   0.64929   0.26076   1.000
    Zr158   Zr   0.99966   0.14929   0.26076   1.000
    Zr159   Zr   0.99967   0.64929   0.26076   1.000
    Zr160   Zr   0.44820   0.20306   0.23850   1.000
    Zr161   Zr   0.44821   0.70305   0.23850   1.000
    Zr162   Zr   0.94821   0.20306   0.23851   1.000
    Zr163   Zr   0.94822   0.70305   0.23851   1.000
    Zr164   Zr   0.06547   0.25167   0.21339   1.000
    Zr165   Zr   0.06547   0.75166   0.21339   1.000
    Zr166   Zr   0.56548   0.25166   0.21339   1.000
    Zr167   Zr   0.56548   0.75166   0.21339   1.000
    Zr168   Zr   0.35885   0.14126   0.41047   1.000
    Zr169   Zr   0.35885   0.64125   0.41047   1.000
    Zr170   Zr   0.85886   0.14126   0.41047   1.000
    Zr171   Zr   0.85886   0.64125   0.41047   1.000
    Zr172   Zr   0.41128   0.08857   0.43359   1.000
    Zr173   Zr   0.41129   0.58856   0.43359   1.000
    Zr174   Zr   0.91129   0.08857   0.43359   1.000
    Zr175   Zr   0.91129   0.58856   0.43359   1.000
    Zr176   Zr   0.36332   0.13674   0.55071   1.000
    Zr177   Zr   0.36332   0.63673   0.55071   1.000
    Zr178   Zr   0.86333   0.13674   0.55071   1.000
    Zr179   Zr   0.86333   0.63673   0.55071   1.000
    Zr180   Zr   0.14117   0.35871   0.91044   1.000
    Zr181   Zr   0.14117   0.85870   0.91044   1.000
    Zr182   Zr   0.64118   0.35871   0.91044   1.000
    Zr183   Zr   0.64118   0.85870   0.91044   1.000
    Zr184   Zr   0.08873   0.41139   0.93356   1.000
    Zr185   Zr   0.08873   0.91138   0.93356   1.000
    Zr186   Zr   0.58874   0.41139   0.93356   1.000
    Zr187   Zr   0.58874   0.91138   0.93356   1.000
    Zr188   Zr   0.13669   0.36323   0.05070   1.000
    Zr189   Zr   0.13670   0.86322   0.05070   1.000
    Zr190   Zr   0.63670   0.36323   0.05070   1.000
    Zr191   Zr   0.63671   0.86322   0.05070   1.000
    Zr192   Zr   0.05806   0.44252   0.28649   1.000
    Zr193   Zr   0.05806   0.94251   0.28649   1.000
    Zr194   Zr   0.55807   0.44251   0.28649   1.000
    Zr195   Zr   0.55807   0.94251   0.28649   1.000
    Zr196   Zr   0.22946   0.27021   0.33786   1.000
    Zr197   Zr   0.22947   0.77020   0.33786   1.000
    Zr198   Zr   0.72947   0.27021   0.33786   1.000
    Zr199   Zr   0.72948   0.77020   0.33786   1.000
    Zr200   Zr   0.26912   0.23076   0.12643   1.000
    Zr201   Zr   0.26912   0.73075   0.12643   1.000
    Zr202   Zr   0.76913   0.23076   0.12643   1.000
    Zr203   Zr   0.76913   0.73075   0.12643   1.000
    Zr204   Zr   0.44195   0.05745   0.78645   1.000
    Zr205   Zr   0.44195   0.55744   0.78645   1.000
    Zr206   Zr   0.94196   0.05745   0.78645   1.000
    Zr207   Zr   0.94196   0.55744   0.78645   1.000
    Zr208   Zr   0.27054   0.22976   0.83784   1.000
    Zr209   Zr   0.27054   0.72975   0.83784   1.000
    Zr210   Zr   0.77055   0.22976   0.83784   1.000
    Zr211   Zr   0.77055   0.72975   0.83784   1.000
    Zr212   Zr   0.23090   0.26922   0.62641   1.000
    Zr213   Zr   0.23090   0.76921   0.62641   1.000
    Zr214   Zr   0.73091   0.26922   0.62641   1.000
    Zr215   Zr   0.73091   0.76921   0.62641   1.000
    O216    O    0.61218   0.88786   0.03415   1.000
    O217    O    0.56969   0.93056   0.03598   1.000
    O218    O    0.58820   0.91194   0.97558   1.000
    O219    O    0.61218   0.38787   0.03415   1.000
    O220    O    0.56968   0.43057   0.03598   1.000
    O221    O    0.58820   0.41195   0.97558   1.000
    O222    O    0.11217   0.88786   0.03415   1.000
    O223    O    0.06968   0.93056   0.03598   1.000
    O224    O    0.08819   0.91194   0.97558   1.000
    O225    O    0.11217   0.38787   0.03415   1.000
    O226    O    0.06967   0.43057   0.03598   1.000
    O227    O    0.08819   0.41195   0.97558   1.000
    O228    O    0.15489   0.34502   0.11904   1.000
    O229    O    0.15254   0.34730   0.01630   1.000
    O230    O    0.15489   0.84501   0.11904   1.000
    O231    O    0.15255   0.84729   0.01630   1.000
    O232    O    0.65490   0.34502   0.11904   1.000
    O233    O    0.65255   0.34730   0.01630   1.000
    O234    O    0.65490   0.84501   0.11904   1.000
    O235    O    0.65256   0.84729   0.01630   1.000
    O236    O    0.72111   0.27878   0.15690   1.000
    O237    O    0.22110   0.77877   0.15690   1.000
    O238    O    0.22110   0.27878   0.15690   1.000
    O239    O    0.72111   0.77877   0.15690   1.000
    O240    O    0.21073   0.88059   0.20035   1.000
    O241    O    0.11928   0.78923   0.20038   1.000
    O242    O    0.21073   0.38060   0.20035   1.000
    O243    O    0.11928   0.28924   0.20038   1.000
    O244    O    0.71074   0.38060   0.20035   1.000
    O245    O    0.61929   0.28924   0.20038   1.000
    O246    O    0.71074   0.88059   0.20035   1.000
    O247    O    0.61929   0.78923   0.20038   1.000
    O248    O    0.71088   0.52237   0.19907   1.000
    O249    O    0.71088   0.02238   0.19907   1.000
    O250    O    0.21087   0.52237   0.19907   1.000
    O251    O    0.21087   0.02238   0.19907   1.000
    O252    O    0.47762   0.28934   0.19917   1.000
    O253    O    0.47763   0.78933   0.19917   1.000
    O254    O    0.97763   0.28934   0.19917   1.000
    O255    O    0.97764   0.78933   0.19917   1.000
    O256    O    0.24260   0.47231   0.21178   1.000
    O257    O    0.26698   0.53095   0.22431   1.000
    O258    O    0.74261   0.97231   0.21178   1.000
    O259    O    0.76699   0.03096   0.22431   1.000
    O260    O    0.24260   0.97231   0.21178   1.000
    O261    O    0.26698   0.03096   0.22431   1.000
    O262    O    0.74261   0.47231   0.21178   1.000
    O263    O    0.76699   0.53095   0.22431   1.000
    O264    O    0.02759   0.25750   0.21185   1.000
    O265    O    0.96896   0.23319   0.22441   1.000
    O266    O    0.02759   0.75749   0.21185   1.000
    O267    O    0.96896   0.73318   0.22441   1.000
    O268    O    0.52759   0.75749   0.21185   1.000
    O269    O    0.46895   0.73318   0.22440   1.000
    O270    O    0.52759   0.25750   0.21185   1.000
    O271    O    0.46895   0.23319   0.22440   1.000
    O272    O    0.78400   0.93265   0.22919   1.000
    O273    O    0.28399   0.43266   0.22919   1.000
    O274    O    0.28399   0.93265   0.22919   1.000
    O275    O    0.78400   0.43266   0.22919   1.000
    O276    O    0.06714   0.21600   0.22921   1.000
    O277    O    0.06714   0.71599   0.22921   1.000
    O278    O    0.56715   0.21600   0.22921   1.000
    O279    O    0.56715   0.71599   0.22921   1.000
    O280    O    0.82394   0.02589   0.24958   1.000
    O281    O    0.80871   0.11568   0.25457   1.000
    O282    O    0.82395   0.52588   0.24958   1.000
    O283    O    0.80871   0.61567   0.25457   1.000
    O284    O    0.32394   0.52588   0.24958   1.000
    O285    O    0.30870   0.61567   0.25457   1.000
    O286    O    0.32393   0.02589   0.24958   1.000
    O287    O    0.30870   0.11568   0.25457   1.000
    O288    O    0.47393   0.17618   0.24963   1.000
    O289    O    0.38424   0.19137   0.25462   1.000
    O290    O    0.47393   0.67617   0.24963   1.000
    O291    O    0.38424   0.69136   0.25462   1.000
    O292    O    0.97394   0.17618   0.24964   1.000
    O293    O    0.88425   0.19137   0.25462   1.000
    O294    O    0.97394   0.67617   0.24964   1.000
    O295    O    0.88425   0.69136   0.25462   1.000
    O296    O    0.59508   0.66630   0.25129   1.000
    O297    O    0.53424   0.66481   0.25289   1.000
    O298    O    0.59508   0.16631   0.25129   1.000
    O299    O    0.53423   0.16482   0.25289   1.000
    O300    O    0.09507   0.16631   0.25129   1.000
    O301    O    0.03423   0.16482   0.25289   1.000
    O302    O    0.09507   0.66630   0.25129   1.000
    O303    O    0.03424   0.66481   0.25289   1.000
    O304    O    0.83358   0.40462   0.25133   1.000
    O305    O    0.83519   0.46551   0.25290   1.000
    O306    O    0.33357   0.40462   0.25133   1.000
    O307    O    0.33518   0.46551   0.25290   1.000
    O308    O    0.33357   0.90461   0.25132   1.000
    O309    O    0.33518   0.96551   0.25290   1.000
    O310    O    0.83358   0.90461   0.25133   1.000
    O311    O    0.83519   0.96551   0.25290   1.000
    O312    O    0.40785   0.51753   0.29070   1.000
    O313    O    0.90785   0.51753   0.29070   1.000
    O314    O    0.90785   0.01754   0.29070   1.000
    O315    O    0.40784   0.01754   0.29070   1.000
    O316    O    0.48230   0.59212   0.29070   1.000
    O317    O    0.98231   0.09213   0.29070   1.000
    O318    O    0.98231   0.59212   0.29070   1.000
    O319    O    0.48230   0.09213   0.29070   1.000
    O320    O    0.27487   0.22495   0.30430   1.000
    O321    O    0.33956   0.16047   0.34061   1.000
    O322    O    0.27487   0.72494   0.30430   1.000
    O323    O    0.33957   0.66046   0.34061   1.000
    O324    O    0.77488   0.22495   0.30430   1.000
    O325    O    0.83957   0.16047   0.34061   1.000
    O326    O    0.77488   0.72494   0.30430   1.000
    O327    O    0.83958   0.66046   0.34061   1.000
    O328    O    0.01151   0.48874   0.30357   1.000
    O329    O    0.51151   0.98874   0.30357   1.000
    O330    O    0.51151   0.48874   0.30357   1.000
    O331    O    0.01151   0.98874   0.30357   1.000
    O332    O    0.43811   0.56176   0.37712   1.000
    O333    O    0.43811   0.06177   0.37712   1.000
    O334    O    0.93812   0.06177   0.37712   1.000
    O335    O    0.93812   0.56176   0.37712   1.000
    O336    O    0.38507   0.11491   0.42203   1.000
    O337    O    0.34523   0.15493   0.44621   1.000
    O338    O    0.38507   0.61490   0.42203   1.000
    O339    O    0.34524   0.65492   0.44621   1.000
    O340    O    0.88508   0.11491   0.42203   1.000
    O341    O    0.84524   0.15493   0.44621   1.000
    O342    O    0.88508   0.61490   0.42203   1.000
    O343    O    0.84525   0.65492   0.44621   1.000
    O344    O    0.41182   0.08802   0.47562   1.000
    O345    O    0.41182   0.58801   0.47562   1.000
    O346    O    0.91183   0.08802   0.47562   1.000
    O347    O    0.91183   0.58801   0.47562   1.000
    O348    O    0.31030   0.19002   0.48315   1.000
    O349    O    0.34747   0.15267   0.51633   1.000
    O350    O    0.31030   0.69001   0.48315   1.000
    O351    O    0.34747   0.65266   0.51633   1.000
    O352    O    0.81031   0.19001   0.48315   1.000
    O353    O    0.84748   0.15267   0.51633   1.000
    O354    O    0.81031   0.69001   0.48315   1.000
    O355    O    0.84748   0.65266   0.51633   1.000
    O356    O    0.38784   0.11210   0.53418   1.000
    O357    O    0.43033   0.06940   0.53600   1.000
    O358    O    0.88785   0.61209   0.53418   1.000
    O359    O    0.93035   0.56939   0.53600   1.000
    O360    O    0.38784   0.61209   0.53418   1.000
    O361    O    0.43034   0.56939   0.53600   1.000
    O362    O    0.88785   0.11210   0.53418   1.000
    O363    O    0.93034   0.06940   0.53600   1.000
    O364    O    0.84513   0.65494   0.61904   1.000
    O365    O    0.84513   0.15495   0.61904   1.000
    O366    O    0.34512   0.65494   0.61904   1.000
    O367    O    0.34512   0.15495   0.61904   1.000
    O368    O    0.77892   0.72118   0.65689   1.000
    O369    O    0.77892   0.22119   0.65689   1.000
    O370    O    0.27891   0.72118   0.65689   1.000
    O371    O    0.27891   0.22119   0.65689   1.000
    O372    O    0.78929   0.11937   0.70034   1.000
    O373    O    0.88074   0.21074   0.70037   1.000
    O374    O    0.88074   0.71073   0.70034   1.000
    O375    O    0.78929   0.61936   0.70034   1.000
    O376    O    0.28928   0.61936   0.70034   1.000
    O377    O    0.38073   0.71073   0.70034   1.000
    O378    O    0.28928   0.11937   0.70034   1.000
    O379    O    0.38073   0.21074   0.70037   1.000
    O380    O    0.28913   0.47760   0.69904   1.000
    O381    O    0.28914   0.97759   0.69904   1.000
    O382    O    0.78914   0.47760   0.69904   1.000
    O383    O    0.78915   0.97759   0.69904   1.000
    O384    O    0.52240   0.71062   0.69911   1.000
    O385    O    0.52239   0.21063   0.69915   1.000
    O386    O    0.02239   0.71062   0.69911   1.000
    O387    O    0.02238   0.21063   0.69911   1.000
    O388    O    0.25740   0.52765   0.71175   1.000
    O389    O    0.23303   0.46901   0.72430   1.000
    O390    O    0.25740   0.02765   0.71175   1.000
    O391    O    0.23303   0.96900   0.72430   1.000
    O392    O    0.75741   0.52765   0.71175   1.000
    O393    O    0.73304   0.46901   0.72430   1.000
    O394    O    0.75741   0.02765   0.71175   1.000
    O395    O    0.73304   0.96900   0.72430   1.000
    O396    O    0.97243   0.24248   0.71179   1.000
    O397    O    0.03106   0.26678   0.72434   1.000
    O398    O    0.97243   0.74247   0.71175   1.000
    O399    O    0.03106   0.76677   0.72434   1.000
    O400    O    0.47243   0.74247   0.71175   1.000
    O401    O    0.53107   0.76677   0.72434   1.000
    O402    O    0.47243   0.24248   0.71183   1.000
    O403    O    0.53107   0.26678   0.72438   1.000
    O404    O    0.71603   0.06731   0.72915   1.000
    O405    O    0.21602   0.56730   0.72915   1.000
    O406    O    0.21602   0.06731   0.72915   1.000
    O407    O    0.93288   0.78396   0.72914   1.000
    O408    O    0.43287   0.78396   0.72910   1.000
    O409    O    0.71603   0.56730   0.72915   1.000
    O410    O    0.43287   0.28397   0.72914   1.000
    O411    O    0.93288   0.28397   0.72914   1.000
    O412    O    0.67608   0.47408   0.74957   1.000
    O413    O    0.69132   0.38429   0.75456   1.000
    O414    O    0.17607   0.97407   0.74957   1.000
    O415    O    0.19131   0.88428   0.75456   1.000
    O416    O    0.67608   0.97407   0.74957   1.000
    O417    O    0.69132   0.88428   0.75456   1.000
    O418    O    0.17607   0.47408   0.74957   1.000
    O419    O    0.19131   0.38429   0.75456   1.000
    O420    O    0.52609   0.82379   0.74960   1.000
    O421    O    0.61578   0.80859   0.75459   1.000
    O422    O    0.52609   0.32380   0.74960   1.000
    O423    O    0.61578   0.30860   0.75459   1.000
    O424    O    0.02608   0.82379   0.74960   1.000
    O425    O    0.11577   0.80859   0.75459   1.000
    O426    O    0.02608   0.32380   0.74960   1.000
    O427    O    0.11577   0.30860   0.75459   1.000
    O428    O    0.90495   0.33367   0.75121   1.000
    O429    O    0.96578   0.33516   0.75282   1.000
    O430    O    0.40494   0.83365   0.75121   1.000
    O431    O    0.46579   0.83515   0.75282   1.000
    O432    O    0.40494   0.33366   0.75121   1.000
    O433    O    0.46578   0.33516   0.75282   1.000
    O434    O    0.90495   0.83366   0.75125   1.000
    O435    O    0.96579   0.83515   0.75286   1.000
    O436    O    0.66644   0.59534   0.75129   1.000
    O437    O    0.66483   0.53445   0.75287   1.000
    O438    O    0.66644   0.09535   0.75129   1.000
    O439    O    0.66484   0.03445   0.75287   1.000
    O440    O    0.16643   0.59534   0.75129   1.000
    O441    O    0.16483   0.53445   0.75287   1.000
    O442    O    0.16643   0.09535   0.75129   1.000
    O443    O    0.16483   0.03445   0.75287   1.000
    O444    O    0.09216   0.48243   0.79068   1.000
    O445    O    0.59217   0.98242   0.79068   1.000
    O446    O    0.59217   0.48243   0.79068   1.000
    O447    O    0.09217   0.98242   0.79068   1.000
    O448    O    0.51772   0.90783   0.79068   1.000
    O449    O    0.51772   0.40784   0.79068   1.000
    O450    O    0.01772   0.90783   0.79068   1.000
    O451    O    0.01771   0.40784   0.79068   1.000
    O452    O    0.72515   0.77501   0.80427   1.000
    O453    O    0.66046   0.83949   0.84057   1.000
    O454    O    0.22514   0.27502   0.80427   1.000
    O455    O    0.16045   0.33950   0.84057   1.000
    O456    O    0.22514   0.77501   0.80427   1.000
    O457    O    0.16045   0.83949   0.84057   1.000
    O458    O    0.72515   0.27502   0.80427   1.000
    O459    O    0.66046   0.33950   0.84057   1.000
    O460    O    0.98851   0.51122   0.80354   1.000
    O461    O    0.98851   0.01122   0.80354   1.000
    O462    O    0.48851   0.51122   0.80354   1.000
    O463    O    0.48851   0.01122   0.80354   1.000
    O464    O    0.06190   0.43819   0.87710   1.000
    O465    O    0.06190   0.93818   0.87710   1.000
    O466    O    0.56191   0.43819   0.87710   1.000
    O467    O    0.56191   0.93818   0.87710   1.000
    O468    O    0.11495   0.38505   0.92200   1.000
    O469    O    0.15478   0.34504   0.94618   1.000
    O470    O    0.11495   0.88504   0.92200   1.000
    O471    O    0.15478   0.84503   0.94618   1.000
    O472    O    0.61496   0.38505   0.92200   1.000
    O473    O    0.65479   0.34504   0.94618   1.000
    O474    O    0.61496   0.88504   0.92200   1.000
    O475    O    0.65479   0.84503   0.94618   1.000
    O476    O    0.68973   0.30995   0.98312   1.000
    O477    O    0.18972   0.30995   0.98312   1.000
    O478    O    0.18972   0.80994   0.98312   1.000
    O479    O    0.68973   0.80994   0.98312   1.000
loop_
    _geom_bond_atom_site_label_1
    _geom_bond_atom_site_label_2
    _geom_bond_distance
    _geom_bond_site_symmetry_2
    _ccdc_geom_bond_type
    Zr119  O216      0.67705      .   S
    Zr191  O216      0.67705      .   S
    Zr119  O217      0.54284      .   S
    Zr71   O217      0.54284      .   S
    Zr119  O218      0.66881  1_554   S
    Zr187  O218      0.66881      .   S
    Zr118  O219      0.67705      .   S
    Zr190  O219      0.67705      .   S
    Zr118  O220      0.54284      .   S
    Zr70   O220      0.54284      .   S
    Zr118  O221      0.66881  1_554   S
    Zr186  O221      0.66881      .   S
    Zr117  O222      0.67706      .   S
    Zr189  O222      0.67706      .   S
    Zr117  O223      0.54284      .   S
    Zr69   O223      0.54284      .   S
    Zr117  O224      0.66881  1_554   S
    Zr185  O224      0.66881      .   S
    Zr116  O225      0.67705      .   S
    Zr188  O225      0.67705      .   S
    Zr116  O226      0.54284      .   S
    Zr68   O226      0.54284      .   S
    Zr116  O227      0.66881  1_554   S
    Zr184  O227      0.66881      .   S
    Zr188  O228      1.18147      .   S
    Zr4    O228      1.18147      .   S
    Zr188  O229      0.67985      .   S
    Zr112  O229      0.67985  1_556   S
    Zr189  O230      1.18147      .   S
    Zr5    O230      1.18147      .   S
    Zr189  O231      0.67985      .   S
    Zr113  O231      0.67985  1_556   S
    Zr190  O232      1.18147      .   S
    Zr6    O232      1.18147      .   S
    Zr190  O233      0.67985      .   S
    Zr114  O233      0.67985  1_556   S
    Zr191  O234      1.18147      .   S
    Zr7    O234      1.18147      .   S
    Zr191  O235      0.67985      .   S
    Zr115  O235      0.67985  1_556   S
    Zr202  O236      1.31153      .   S
    Zr6    O236      1.31153      .   S
    Zr201  O237      1.31153      .   S
    Zr5    O237      1.31153      .   S
    Zr200  O238      1.31153      .   S
    Zr4    O238      1.31153      .   S
    Zr203  O239      1.31153      .   S
    Zr7    O239      1.31153      .   S
    Zr5    O240      1.14600      .   S
    Zr129  O240      1.14600      .   S
    Zr5    O241      1.14594      .   S
    Zr165  O241      1.14594      .   S
    Zr4    O242      1.14600      .   S
    Zr128  O242      1.14600      .   S
    Zr4    O243      1.14594      .   S
    Zr164  O243      1.14594      .   S
    Zr6    O244      1.14600      .   S
    Zr130  O244      1.14600      .   S
    Zr6    O245      1.14594      .   S
    Zr166  O245      1.14594      .   S
    Zr7    O246      1.14600      .   S
    Zr131  O246      1.14600      .   S
    Zr7    O247      1.14594      .   S
    Zr167  O247      1.14594      .   S
    Zr31   O248      0.54167      .   S
    Zr79   O248      0.54167      .   S
    Zr30   O249      0.54167      .   S
    Zr78   O249      0.54167      .   S
    Zr29   O250      0.54167      .   S
    Zr77   O250      0.54167      .   S
    Zr28   O251      0.54167      .   S
    Zr76   O251      0.54167      .   S
    Zr52   O252      0.54168      .   S
    Zr100  O252      0.54168      .   S
    Zr53   O253      0.54167      .   S
    Zr101  O253      0.54167      .   S
    Zr54   O254      0.54167      .   S
    Zr102  O254      0.54167      .   S
    Zr55   O255      0.54168      .   S
    Zr103  O255      0.54168      .   S
    Zr77   O256      0.67799      .   S
    Zr128  O256      0.67799      .   S
    Zr77   O257      0.66695      .   S
    Zr125  O257      0.66695      .   S
    Zr78   O258      0.67816  1_545   S
    Zr131  O258      0.67816      .   S
    Zr78   O259      0.66696      .   S
    Zr126  O259      0.66696      .   S
    Zr76   O260      0.67817  1_545   S
    Zr129  O260      0.67817      .   S
    Zr76   O261      0.66696      .   S
    Zr124  O261      0.66696      .   S
    Zr79   O262      0.67799      .   S
    Zr130  O262      0.67799      .   S
    Zr79   O263      0.66695      .   S
    Zr127  O263      0.66695      .   S
    Zr102  O264      0.67782  1_655   S
    Zr164  O264      0.67782      .   S
    Zr102  O265      0.66712      .   S
    Zr162  O265      0.66712      .   S
    Zr103  O266      0.67782  1_655   S
    Zr165  O266      0.67782      .   S
    Zr103  O267      0.66712      .   S
    Zr163  O267      0.66712      .   S
    Zr101  O268      0.67799      .   S
    Zr167  O268      0.67799      .   S
    Zr101  O269      0.66709      .   S
    Zr161  O269      0.66709      .   S
    Zr100  O270      0.67799      .   S
    Zr166  O270      0.67799      .   S
    Zr100  O271      0.66709      .   S
    Zr160  O271      0.66709      .   S
    Zr131  O272      0.67629      .   S
    Zr75   O272      0.67629      .   S
    Zr128  O273      0.67629      .   S
    Zr72   O273      0.67629      .   S
    Zr129  O274      0.67629      .   S
    Zr73   O274      0.67629      .   S
    Zr130  O275      0.67629      .   S
    Zr74   O275      0.67629      .   S
    Zr164  O276      0.67632      .   S
    Zr96   O276      0.67632      .   S
    Zr165  O277      0.67632      .   S
    Zr97   O277      0.67632      .   S
    Zr166  O278      0.67631      .   S
    Zr98   O278      0.67631      .   S
    Zr167  O279      0.67632      .   S
    Zr99   O279      0.67632      .   S
    Zr126  O280      0.69082      .   S
    Zr122  O280      0.69082      .   S
    Zr126  O281      1.16102      .   S
    Zr10   O281      1.16102      .   S
    Zr127  O282      0.69082      .   S
    Zr123  O282      0.69082      .   S
    Zr127  O283      1.16101      .   S
    Zr11   O283      1.16101      .   S
    Zr125  O284      0.69082      .   S
    Zr121  O284      0.69082      .   S
    Zr125  O285      1.16102      .   S
    Zr9    O285      1.16102      .   S
    Zr124  O286      0.69082      .   S
    Zr120  O286      0.69082      .   S
    Zr124  O287      1.16102      .   S
    Zr8    O287      1.16102      .   S
    Zr160  O288      0.69073      .   S
    Zr156  O288      0.69073      .   S
    Zr160  O289      1.16095      .   S
    Zr8    O289      1.16095      .   S
    Zr161  O290      0.69073      .   S
    Zr157  O290      0.69073      .   S
    Zr161  O291      1.16094      .   S
    Zr9    O291      1.16094      .   S
    Zr162  O292      0.69071      .   S
    Zr158  O292      0.69071      .   S
    Zr162  O293      1.16093      .   S
    Zr10   O293      1.16093      .   S
    Zr163  O294      0.69071      .   S
    Zr159  O294      0.69071      .   S
    Zr163  O295      1.16093      .   S
    Zr11   O295      1.16093      .   S
    Zr99   O296      0.54161      .   S
    Zr51   O296      0.54161      .   S
    Zr99   O297      0.66585      .   S
    Zr157  O297      0.66585      .   S
    Zr98   O298      0.54161      .   S
    Zr50   O298      0.54161      .   S
    Zr98   O299      0.66585      .   S
    Zr156  O299      0.66585      .   S
    Zr96   O300      0.54162      .   S
    Zr48   O300      0.54162      .   S
    Zr96   O301      0.66569      .   S
    Zr158  O301      0.66569  1_655   S
    Zr97   O302      0.54161      .   S
    Zr49   O302      0.54161      .   S
    Zr97   O303      0.66570      .   S
    Zr159  O303      0.66570  1_655   S
    Zr74   O304      0.54162      .   S
    Zr26   O304      0.54162      .   S
    Zr74   O305      0.66586      .   S
    Zr123  O305      0.66586      .   S
    Zr72   O306      0.54162      .   S
    Zr24   O306      0.54162      .   S
    Zr72   O307      0.66586      .   S
    Zr121  O307      0.66586      .   S
    Zr73   O308      0.54159      .   S
    Zr25   O308      0.54159      .   S
    Zr73   O309      0.66600      .   S
    Zr120  O309      0.66600  1_545   S
    Zr75   O310      0.54162      .   S
    Zr27   O310      0.54162      .   S
    Zr75   O311      0.66600      .   S
    Zr122  O311      0.66600  1_545   S
    Zr121  O312      1.13909      .   S
    Zr1    O312      1.13909      .   S
    Zr123  O313      1.13910      .   S
    Zr3    O313      1.13910      .   S
    Zr122  O314      1.13910      .   S
    Zr2    O314      1.13910      .   S
    Zr120  O315      1.13910      .   S
    Zr0    O315      1.13910      .   S
    Zr157  O316      1.13928      .   S
    Zr1    O316      1.13928      .   S
    Zr158  O317      1.13928      .   S
    Zr2    O317      1.13928      .   S
    Zr159  O318      1.13928      .   S
    Zr3    O318      1.13928      .   S
    Zr156  O319      1.13927      .   S
    Zr0    O319      1.13927      .   S
    Zr8    O320      1.26831      .   S
    Zr196  O320      1.26831      .   S
    Zr8    O321      1.21437      .   S
    Zr168  O321      1.21437      .   S
    Zr9    O322      1.26831      .   S
    Zr197  O322      1.26831      .   S
    Zr9    O323      1.21437      .   S
    Zr169  O323      1.21437      .   S
    Zr10   O324      1.26831      .   S
    Zr198  O324      1.26831      .   S
    Zr10   O325      1.21437      .   S
    Zr170  O325      1.21437      .   S
    Zr11   O326      1.26831      .   S
    Zr199  O326      1.26831      .   S
    Zr11   O327      1.21437      .   S
    Zr171  O327      1.21437      .   S
    Zr192  O328      1.20819      .   S
    Zr3    O328      1.20819  1_655   S
    Zr195  O329      1.20846      .   S
    Zr0    O329      1.20846  1_545   S
    Zr194  O330      1.20832      .   S
    Zr1    O330      1.20832      .   S
    Zr193  O331      1.20833      .   S
    Zr2    O331      1.20833  1_645   S
    Zr1    O332      1.12716      .   S
    Zr173  O332      1.12716      .   S
    Zr0    O333      1.12716      .   S
    Zr172  O333      1.12716      .   S
    Zr2    O334      1.12716      .   S
    Zr174  O334      1.12716      .   S
    Zr3    O335      1.12716      .   S
    Zr175  O335      1.12716      .   S
    Zr168  O336      0.69178      .   S
    Zr172  O336      0.69178      .   S
    Zr168  O337      0.66576      .   S
    Zr104  O337      0.66576      .   S
    Zr169  O338      0.69178      .   S
    Zr173  O338      0.69178      .   S
    Zr169  O339      0.66576      .   S
    Zr105  O339      0.66576      .   S
    Zr170  O340      0.69178      .   S
    Zr174  O340      0.69178      .   S
    Zr170  O341      0.66576      .   S
    Zr106  O341      0.66576      .   S
    Zr171  O342      0.69177      .   S
    Zr175  O342      0.69177      .   S
    Zr171  O343      0.66577      .   S
    Zr107  O343      0.66577      .   S
    Zr172  O344      0.66889      .   S
    Zr108  O344      0.66889      .   S
    Zr173  O345      0.66889      .   S
    Zr109  O345      0.66889      .   S
    Zr174  O346      0.66889      .   S
    Zr110  O346      0.66889      .   S
    Zr175  O347      0.66889      .   S
    Zr111  O347      0.66889      .   S
    Zr104  O348      0.54260      .   S
    Zr56   O348      0.54260      .   S
    Zr104  O349      0.67970      .   S
    Zr176  O349      0.67970      .   S
    Zr105  O350      0.54260      .   S
    Zr57   O350      0.54260      .   S
    Zr105  O351      0.67970      .   S
    Zr177  O351      0.67970      .   S
    Zr106  O352      0.54260      .   S
    Zr58   O352      0.54260      .   S
    Zr106  O353      0.67970      .   S
    Zr178  O353      0.67970      .   S
    Zr107  O354      0.54259      .   S
    Zr59   O354      0.54259      .   S
    Zr107  O355      0.67970      .   S
    Zr179  O355      0.67970      .   S
    Zr108  O356      0.67697      .   S
    Zr176  O356      0.67697      .   S
    Zr108  O357      0.54269      .   S
    Zr60   O357      0.54269      .   S
    Zr111  O358      0.67697      .   S
    Zr179  O358      0.67697      .   S
    Zr111  O359      0.54269      .   S
    Zr63   O359      0.54269      .   S
    Zr109  O360      0.67696      .   S
    Zr177  O360      0.67696      .   S
    Zr109  O361      0.54270      .   S
    Zr61   O361      0.54270      .   S
    Zr110  O362      0.67696      .   S
    Zr178  O362      0.67696      .   S
    Zr110  O363      0.54270      .   S
    Zr62   O363      0.54270      .   S
    Zr179  O364      1.18140      .   S
    Zr19   O364      1.18140      .   S
    Zr178  O365      1.18140      .   S
    Zr18   O365      1.18140      .   S
    Zr177  O366      1.18140      .   S
    Zr17   O366      1.18140      .   S
    Zr176  O367      1.18140      .   S
    Zr16   O367      1.18140      .   S
    Zr215  O368      1.31156      .   S
    Zr19   O368      1.31156      .   S
    Zr214  O369      1.31157      .   S
    Zr18   O369      1.31157      .   S
    Zr213  O370      1.31157      .   S
    Zr17   O370      1.31157      .   S
    Zr212  O371      1.31156      .   S
    Zr16   O371      1.31156      .   S
    Zr18   O372      1.14597      .   S
    Zr142  O372      1.14597      .   S
    Zr18   O373      1.14593      .   S
    Zr154  O373      1.14593      .   S
    Zr19   O374      1.14583      .   S
    Zr155  O374      1.14583      .   S
    Zr19   O375      1.14598      .   S
    Zr143  O375      1.14598      .   S
    Zr17   O376      1.14598      .   S
    Zr141  O376      1.14598      .   S
    Zr17   O377      1.14583      .   S
    Zr153  O377      1.14583      .   S
    Zr16   O378      1.14597      .   S
    Zr140  O378      1.14597      .   S
    Zr16   O379      1.14593      .   S
    Zr152  O379      1.14593      .   S
    Zr36   O380      0.54167      .   S
    Zr84   O380      0.54167      .   S
    Zr37   O381      0.54167      .   S
    Zr85   O381      0.54167      .   S
    Zr38   O382      0.54167      .   S
    Zr86   O382      0.54167      .   S
    Zr39   O383      0.54167      .   S
    Zr87   O383      0.54167      .   S
    Zr47   O384      0.54147      .   S
    Zr95   O384      0.54147      .   S
    Zr46   O385      0.54168      .   S
    Zr94   O385      0.54168      .   S
    Zr45   O386      0.54147      .   S
    Zr93   O386      0.54147      .   S
    Zr44   O387      0.54146      .   S
    Zr92   O387      0.54146      .   S
    Zr84   O388      0.67799      .   S
    Zr141  O388      0.67799      .   S
    Zr84   O389      0.66707      .   S
    Zr136  O389      0.66707      .   S
    Zr85   O390      0.67816  1_565   S
    Zr140  O390      0.67816      .   S
    Zr85   O391      0.66707      .   S
    Zr137  O391      0.66707      .   S
    Zr86   O392      0.67798      .   S
    Zr143  O392      0.67798      .   S
    Zr86   O393      0.66707      .   S
    Zr138  O393      0.66707      .   S
    Zr87   O394      0.67816  1_565   S
    Zr142  O394      0.67816      .   S
    Zr87   O395      0.66707      .   S
    Zr139  O395      0.66707      .   S
    Zr92   O396      0.67784  1_455   S
    Zr154  O396      0.67784      .   S
    Zr92   O397      0.66729      .   S
    Zr148  O397      0.66729      .   S
    Zr93   O398      0.67782  1_455   S
    Zr155  O398      0.67782      .   S
    Zr93   O399      0.66729      .   S
    Zr149  O399      0.66729      .   S
    Zr95   O400      0.67800      .   S
    Zr153  O400      0.67800      .   S
    Zr95   O401      0.66729      .   S
    Zr151  O401      0.66729      .   S
    Zr94   O402      0.67799      .   S
    Zr152  O402      0.67799      .   S
    Zr94   O403      0.66708      .   S
    Zr150  O403      0.66708      .   S
    Zr142  O404      0.67629      .   S
    Zr82   O404      0.67629      .   S
    Zr141  O405      0.67629      .   S
    Zr81   O405      0.67629      .   S
    Zr140  O406      0.67629      .   S
    Zr80   O406      0.67629      .   S
    Zr155  O407      0.67648      .   S
    Zr91   O407      0.67648      .   S
    Zr153  O408      0.67624      .   S
    Zr89   O408      0.67624      .   S
    Zr143  O409      0.67629      .   S
    Zr83   O409      0.67629      .   S
    Zr152  O410      0.67603      .   S
    Zr88   O410      0.67603      .   S
    Zr154  O411      0.67603      .   S
    Zr90   O411      0.67603      .   S
    Zr138  O412      0.69074      .   S
    Zr134  O412      0.69074      .   S
    Zr138  O413      1.16092      .   S
    Zr22   O413      1.16092      .   S
    Zr137  O414      0.69074      .   S
    Zr133  O414      0.69074      .   S
    Zr137  O415      1.16092      .   S
    Zr21   O415      1.16092      .   S
    Zr139  O416      0.69074      .   S
    Zr135  O416      0.69074      .   S
    Zr139  O417      1.16092      .   S
    Zr23   O417      1.16092      .   S
    Zr136  O418      0.69074      .   S
    Zr132  O418      0.69074      .   S
    Zr136  O419      1.16091      .   S
    Zr20   O419      1.16091      .   S
    Zr151  O420      0.69074      .   S
    Zr147  O420      0.69074      .   S
    Zr151  O421      1.16092      .   S
    Zr23   O421      1.16092      .   S
    Zr150  O422      0.69074      .   S
    Zr146  O422      0.69074      .   S
    Zr150  O423      1.16093      .   S
    Zr22   O423      1.16093      .   S
    Zr149  O424      0.69074      .   S
    Zr145  O424      0.69074      .   S
    Zr149  O425      1.16093      .   S
    Zr21   O425      1.16093      .   S
    Zr148  O426      0.69074      .   S
    Zr144  O426      0.69074      .   S
    Zr148  O427      1.16092      .   S
    Zr20   O427      1.16092      .   S
    Zr90   O428      0.54173      .   S
    Zr42   O428      0.54173      .   S
    Zr90   O429      0.66584      .   S
    Zr144  O429      0.66584  1_455   S
    Zr89   O430      0.54174      .   S
    Zr41   O430      0.54174      .   S
    Zr89   O431      0.66599      .   S
    Zr147  O431      0.66599      .   S
    Zr88   O432      0.54174      .   S
    Zr40   O432      0.54174      .   S
    Zr88   O433      0.66599      .   S
    Zr146  O433      0.66599      .   S
    Zr91   O434      0.54162      .   S
    Zr43   O434      0.54162      .   S
    Zr91   O435      0.66572      .   S
    Zr145  O435      0.66572  1_455   S
    Zr83   O436      0.54161      .   S
    Zr35   O436      0.54161      .   S
    Zr83   O437      0.66586      .   S
    Zr134  O437      0.66586      .   S
    Zr82   O438      0.54160      .   S
    Zr34   O438      0.54160      .   S
    Zr82   O439      0.66601      .   S
    Zr135  O439      0.66601  1_565   S
    Zr81   O440      0.54161      .   S
    Zr33   O440      0.54161      .   S
    Zr81   O441      0.66586      .   S
    Zr132  O441      0.66586      .   S
    Zr80   O442      0.54161      .   S
    Zr32   O442      0.54161      .   S
    Zr80   O443      0.66600      .   S
    Zr133  O443      0.66600  1_565   S
    Zr132  O444      1.13908      .   S
    Zr12   O444      1.13908      .   S
    Zr135  O445      1.13908      .   S
    Zr15   O445      1.13908      .   S
    Zr134  O446      1.13908      .   S
    Zr14   O446      1.13908      .   S
    Zr133  O447      1.13908      .   S
    Zr13   O447      1.13908      .   S
    Zr147  O448      1.13926      .   S
    Zr15   O448      1.13926      .   S
    Zr146  O449      1.13926      .   S
    Zr14   O449      1.13926      .   S
    Zr145  O450      1.13926      .   S
    Zr13   O450      1.13926      .   S
    Zr144  O451      1.13926      .   S
    Zr12   O451      1.13926      .   S
    Zr23   O452      1.26837      .   S
    Zr211  O452      1.26837      .   S
    Zr23   O453      1.21440      .   S
    Zr183  O453      1.21440      .   S
    Zr20   O454      1.26838      .   S
    Zr208  O454      1.26838      .   S
    Zr20   O455      1.21440      .   S
    Zr180  O455      1.21440      .   S
    Zr21   O456      1.26838      .   S
    Zr209  O456      1.26838      .   S
    Zr21   O457      1.21440      .   S
    Zr181  O457      1.21440      .   S
    Zr22   O458      1.26837      .   S
    Zr210  O458      1.26837      .   S
    Zr22   O459      1.21440      .   S
    Zr182  O459      1.21440      .   S
    Zr207  O460      1.20822      .   S
    Zr12   O460      1.20822  1_455   S
    Zr206  O461      1.20836      .   S
    Zr13   O461      1.20836  1_465   S
    Zr205  O462      1.20834      .   S
    Zr14   O462      1.20834      .   S
    Zr204  O463      1.20848      .   S
    Zr15   O463      1.20848  1_565   S
    Zr12   O464      1.12714      .   S
    Zr184  O464      1.12714      .   S
    Zr13   O465      1.12714      .   S
    Zr185  O465      1.12714      .   S
    Zr14   O466      1.12714      .   S
    Zr186  O466      1.12714      .   S
    Zr15   O467      1.12714      .   S
    Zr187  O467      1.12714      .   S
    Zr180  O468      0.69178      .   S
    Zr184  O468      0.69178      .   S
    Zr180  O469      0.66576      .   S
    Zr112  O469      0.66576      .   S
    Zr181  O470      0.69178      .   S
    Zr185  O470      0.69178      .   S
    Zr181  O471      0.66576      .   S
    Zr113  O471      0.66576      .   S
    Zr182  O472      0.69178      .   S
    Zr186  O472      0.69178      .   S
    Zr182  O473      0.66576      .   S
    Zr114  O473      0.66576      .   S
    Zr183  O474      0.69178      .   S
    Zr187  O474      0.69178      .   S
    Zr183  O475      0.66576      .   S
    Zr115  O475      0.66576      .   S
    Zr114  O476      0.54261      .   S
    Zr66   O476      0.54261      .   S
    Zr112  O477      0.54260      .   S
    Zr64   O477      0.54260      .   S
    Zr113  O478      0.54260      .   S
    Zr65   O478      0.54260      .   S
    Zr115  O479      0.54260      .   S
    Zr67   O479      0.54260      .   S
