# CIF file generated by openbabel 2.4.90, see http://openbabel.sf.net
data_I
_chemical_name_common ''
_cell_length_a 16.243
_cell_length_b 16.245
_cell_length_c 23.175
_cell_angle_alpha 73.291
_cell_angle_beta 73.07
_cell_angle_gamma 67.44
_space_group_name_H-M_alt 'P 1'
_space_group_name_Hall 'P 1'
loop_
    _symmetry_equiv_pos_as_xyz
    x,y,z
loop_
    _atom_site_label
    _atom_site_type_symbol
    _atom_site_fract_x
    _atom_site_fract_y
    _atom_site_fract_z
    _atom_site_occupancy
    Lv0     Lv   0.00002   0.99961   0.49997   1.000
    Lv1     Lv   0.99966   0.99998   0.99998   1.000
    Lv2     Lv   0.31248   0.38621   0.18714   1.000
    Lv3     Lv   0.68761   0.61373   0.81277   1.000
    Lv4     Lv   0.38475   0.31186   0.68821   1.000
    Lv5     Lv   0.61529   0.68810   0.31174   1.000
