# CIF file generated by openbabel 2.4.90, see http://openbabel.sf.net
data_I
_chemical_name_common ''
_cell_length_a 16.243
_cell_length_b 16.245
_cell_length_c 23.175
_cell_angle_alpha 73.291
_cell_angle_beta 73.07
_cell_angle_gamma 67.44
_space_group_name_H-M_alt 'P 1'
_space_group_name_Hall 'P 1'
loop_
    _symmetry_equiv_pos_as_xyz
    x,y,z
loop_
    _atom_site_label
    _atom_site_type_symbol
    _atom_site_fract_x
    _atom_site_fract_y
    _atom_site_fract_z
    _atom_site_occupancy
    Zn0     Zn   0.40940   0.00487   0.01223   1.000
    Zn1     Zn   0.00510   0.40947   0.51170   1.000
    Zn2     Zn   0.59065   0.99507   0.98771   1.000
    Zn3     Zn   0.99500   0.59048   0.48820   1.000
    C4      C    0.14165   0.44274   0.55139   1.000
    C5      C    0.48915   0.10952   0.89076   1.000
    C6      C    0.55745   0.85681   0.94980   1.000
    C7      C    0.88862   0.51201   0.60868   1.000
    C8      C    0.85842   0.55709   0.44857   1.000
    C9      C    0.51094   0.89040   0.10916   1.000
    C10     C    0.44257   0.14313   0.05012   1.000
    C11     C    0.11150   0.48802   0.39122   1.000
    O12     O    0.10579   0.52725   0.53080   1.000
    O13     O    0.11474   0.37926   0.55010   1.000
    O14     O    0.56806   0.07996   0.90355   1.000
    O15     O    0.41929   0.09023   0.92538   1.000
    O16     O    0.47288   0.89246   0.97095   1.000
    O17     O    0.62090   0.88456   0.94999   1.000
    O18     O    0.91879   0.43331   0.59533   1.000
    O19     O    0.90745   0.58213   0.57445   1.000
    O20     O    0.89368   0.47266   0.46970   1.000
    O21     O    0.88595   0.62043   0.44927   1.000
    O22     O    0.43208   0.91983   0.09631   1.000
    O23     O    0.58076   0.90982   0.07460   1.000
    O24     O    0.52711   0.10763   0.02881   1.000
    O25     O    0.37913   0.11530   0.05004   1.000
    O26     O    0.08217   0.56648   0.40482   1.000
    O27     O    0.09192   0.41815   0.42523   1.000
    Ts28    Ts   0.36646   0.00410   0.01407   1.000
    Ts29    Ts   0.00424   0.36660   0.51357   1.000
    Ts30    Ts   0.63358   0.99584   0.98587   1.000
    Ts31    Ts   0.99585   0.63336   0.48633   1.000
    Og32    Og   0.16862   0.43373   0.56084   1.000
    Og33    Og   0.48516   0.13030   0.87048   1.000
    Og34    Og   0.56648   0.82964   0.94048   1.000
    Og35    Og   0.86786   0.51572   0.62908   1.000
    Og36    Og   0.83145   0.56613   0.43911   1.000
    Og37    Og   0.51492   0.86962   0.12945   1.000
    Og38    Og   0.43355   0.17031   0.05943   1.000
    Og39    Og   0.13226   0.48428   0.37083   1.000
loop_
    _geom_bond_atom_site_label_1
    _geom_bond_atom_site_label_2
    _geom_bond_distance
    _geom_bond_site_symmetry_2
    _ccdc_geom_bond_type
    Zn0    O25       2.05037      .   S
    Zn0    O22       2.07860  1_545   S
    Zn0    O15       2.09228  1_554   S
    Zn0    O16       2.07320  1_544   S
    O24    C10       1.27410      .   S
    O24    Zn2       2.07287  1_544   S
    O25    C10       1.27498      .   S
    O23    C9        1.27569      .   S
    O23    Zn2       2.09218  1_554   S
    O22    C9        1.27606      .   S
    C11    O26       1.27617      .   S
    C11    O27       1.27561      .   S
    O26    Zn3       2.07534  1_455   S
    O27    Zn1       2.09010      .   S
    C8     O21       1.27508      .   S
    C8     O20       1.27405      .   S
    O21    Zn3       2.05069      .   S
    O20    Zn1       2.07430  1_655   S
    Zn3    O12       2.07399  1_655   S
    Zn3    O19       2.09104      .   S
    Zn1    O13       2.05064      .   S
    Zn1    O18       2.07471  1_455   S
    O12    C4        1.27409      .   S
    O13    C4        1.27543      .   S
    O19    C7        1.27549      .   S
    O18    C7        1.27621      .   S
    C5     O14       1.27610      .   S
    C5     O15       1.27570      .   S
    O14    Zn2       2.07905  1_545   S
    C6     O17       1.27505      .   S
    C6     O16       1.27410      .   S
    O17    Zn2       2.05031      .   S
    Zn3    Zn1       2.78048  1_655   S
    Zn0    Zn2       2.78106  1_544   S
    Zn0    Ts28      0.69090      .   S
    Zn1    Ts29      0.69057      .   S
    Zn2    Ts30      0.69091      .   S
    Zn3    Ts31      0.69055      .   S
    C4     Og32      0.49966      .   S
    C5     Og33      0.49882      .   S
    C6     Og34      0.49966      .   S
    C7     Og35      0.49875      .   S
    C8     Og36      0.49966      .   S
    C9     Og37      0.49887      .   S
    C10    Og38      0.49966      .   S
    C11    Og39      0.49871      .   S
