# CIF file generated by openbabel 2.4.90, see http://openbabel.sf.net
data_I
_chemical_name_common ''
_cell_length_a 16.243
_cell_length_b 16.245
_cell_length_c 23.175
_cell_angle_alpha 73.291
_cell_angle_beta 73.07
_cell_angle_gamma 67.44
_space_group_name_H-M_alt 'P 1'
_space_group_name_Hall 'P 1'
loop_
    _symmetry_equiv_pos_as_xyz
    x,y,z
loop_
    _atom_site_label
    _atom_site_type_symbol
    _atom_site_fract_x
    _atom_site_fract_y
    _atom_site_fract_z
    _atom_site_occupancy
    N0      N    0.00002   0.99961   0.49997   1.000
    N1      N    0.99966   0.99998   0.99998   1.000
    N2      N    0.31248   0.38621   0.18714   1.000
    N3      N    0.68761   0.61373   0.81277   1.000
    N4      N    0.38475   0.31186   0.68821   1.000
    N5      N    0.61529   0.68810   0.31174   1.000
    Zr6     Zr   0.00006   0.49996   0.49996   1.000
    O7      O    0.14174   0.43525   0.56343   1.000
    O8      O    0.11381   0.46714   0.38692   1.000
    O9      O    0.88630   0.53281   0.61299   1.000
    O10     O    0.99910   0.66358   0.49632   1.000
    O11     O    0.85834   0.56467   0.43651   1.000
    O12     O    0.00098   0.33618   0.50360   1.000
    Zr13    Zr   0.50003   0.99997   0.99996   1.000
    O14     O    0.53306   0.88682   0.11281   1.000
    O15     O    0.33618   0.00091   0.00372   1.000
    O16     O    0.43539   0.14251   0.06279   1.000
    O17     O    0.66369   0.99904   0.99621   1.000
    O18     O    0.46699   0.11312   0.88712   1.000
    O19     O    0.56466   0.85743   0.93713   1.000
loop_
    _geom_bond_atom_site_label_1
    _geom_bond_atom_site_label_2
    _geom_bond_distance
    _geom_bond_site_symmetry_2
    _ccdc_geom_bond_type
    Zr6    O7        2.79122      .   S
    N4     O7        5.02049      .   S
    Zr6    O8        2.79089      .   S
    N2     O8        5.01213      .   S
    Zr6    O9        2.79086  1_455   S
    N3     O9        5.01217      .   S
    Zr6    O10       2.62916  1_455   S
    N0     O10       5.48939  1_455   S
    Zr6    O11       2.79140  1_455   S
    N5     O11       5.02075      .   S
    Zr6    O12       2.63208      .   S
    N0     O12       5.49841  1_565   S
    Zr13   O14       2.79339  1_556   S
    N5     O14       5.01779      .   S
    Zr13   O15       2.63161  1_566   S
    N1     O15       5.49780  1_666   S
    Zr13   O16       2.78700  1_566   S
    N2     O16       5.01093      .   S
    Zr13   O17       2.62873      .   S
    N1     O17       5.48913      .   S
    Zr13   O18       2.79318  1_565   S
    N4     O18       5.01754      .   S
    Zr13   O19       2.78698      .   S
    N3     O19       5.01088      .   S
