# CIF file generated by openbabel 2.4.90, see http://openbabel.sf.net
data_I
_chemical_name_common ''
_cell_length_a 6.608
_cell_length_b 17.299
_cell_length_c 18.381
_cell_angle_alpha 89.998
_cell_angle_beta 89.996
_cell_angle_gamma 81.79
_space_group_name_H-M_alt 'P 1'
_space_group_name_Hall 'P 1'
loop_
    _symmetry_equiv_pos_as_xyz
    x,y,z
loop_
    _atom_site_label
    _atom_site_type_symbol
    _atom_site_fract_x
    _atom_site_fract_y
    _atom_site_fract_z
    _atom_site_occupancy
    N0      N    0.49974   0.99986   0.49996   1.000
    N1      N    0.99989   0.50004   0.49998   1.000
    N2      N    0.52170   0.74880   0.77350   1.000
    N3      N    0.99989   0.00004   0.00002   1.000
    N4      N    0.49974   0.49986   0.00004   1.000
    N5      N    0.47883   0.75123   0.27364   1.000
    N6      N    0.47884   0.25123   0.22636   1.000
    N7      N    0.52171   0.24881   0.72650   1.000
    Zr8     Zr   0.73905   0.79992   0.01828   1.000
    O9      O    0.70601   0.78801   0.94607   1.000
    O10     O    0.77233   0.86006   0.01315   1.000
    O11     O    0.66705   0.71130   0.01256   1.000
    O12     O    0.69136   0.78859   0.09396   1.000
    Zr13    Zr   0.25862   0.19998   0.98169   1.000
    O14     O    0.29248   0.21192   0.05389   1.000
    O15     O    0.22607   0.13990   0.98685   1.000
    O16     O    0.33126   0.28854   0.98745   1.000
    O17     O    0.30717   0.21135   0.90604   1.000
    Zr18    Zr   0.73907   0.29992   0.48173   1.000
    O19     O    0.69137   0.28859   0.40605   1.000
    O20     O    0.77235   0.36006   0.48686   1.000
    O21     O    0.66706   0.21131   0.48745   1.000
    O22     O    0.70603   0.28801   0.55394   1.000
    Zr23    Zr   0.25860   0.69998   0.51829   1.000
    O24     O    0.30715   0.71135   0.59395   1.000
    O25     O    0.22606   0.63990   0.51314   1.000
    O26     O    0.29246   0.71192   0.44610   1.000
    O27     O    0.33124   0.78853   0.51254   1.000
loop_
    _geom_bond_atom_site_label_1
    _geom_bond_atom_site_label_2
    _geom_bond_distance
    _geom_bond_site_symmetry_2
    _ccdc_geom_bond_type
    Zr8    O9        1.36559  1_554   S
    N2     O9        3.49881      .   S
    Zr8    O10       1.09771      .   S
    N3     O10       3.03688  1_545   S
    Zr8    O11       1.67206      .   S
    N4     O11       3.97610      .   S
    Zr8    O12       1.44575      .   S
    N5     O12       3.68182      .   S
    Zr13   O14       1.36638  1_556   S
    N6     O14       3.50270      .   S
    Zr13   O15       1.09513      .   S
    N3     O15       3.02968  1_654   S
    Zr13   O16       1.67285      .   S
    N4     O16       3.97744  1_554   S
    Zr13   O17       1.44686      .   S
    N7     O17       3.68540      .   S
    Zr18   O19       1.44590      .   S
    N6     O19       3.68226      .   S
    Zr18   O20       1.09770      .   S
    N1     O20       3.03681      .   S
    Zr18   O21       1.67206      .   S
    N0     O21       3.97612  1_565   S
    Zr18   O22       1.36546      .   S
    N7     O22       3.49844      .   S
    Zr23   O24       1.44700      .   S
    N2     O24       3.68582      .   S
    Zr23   O25       1.09512      .   S
    N1     O25       3.02961  1_655   S
    Zr23   O26       1.36626      .   S
    N5     O26       3.50236      .   S
    Zr23   O27       1.67285      .   S
    N0     O27       3.97746      .   S
