# CIF file generated by openbabel 2.4.90, see http://openbabel.sf.net
data_I
_chemical_name_common ''
_cell_length_a 11.706
_cell_length_b 20.742
_cell_length_c 23.396
_cell_angle_alpha 86.75
_cell_angle_beta 87.624
_cell_angle_gamma 83.614
_space_group_name_H-M_alt 'P 1'
_space_group_name_Hall 'P 1'
loop_
    _symmetry_equiv_pos_as_xyz
    x,y,z
loop_
    _atom_site_label
    _atom_site_type_symbol
    _atom_site_fract_x
    _atom_site_fract_y
    _atom_site_fract_z
    _atom_site_occupancy
    Zr0     Zr   0.11065   0.07129   0.23551   1.000
    Zr1     Zr   0.11065   0.07129   0.73552   1.000
    Zr2     Zr   0.11064   0.57129   0.23552   1.000
    Zr3     Zr   0.11065   0.57128   0.73552   1.000
    Zr4     Zr   0.61067   0.07129   0.23551   1.000
    Zr5     Zr   0.61067   0.07129   0.73552   1.000
    Zr6     Zr   0.61066   0.57129   0.23552   1.000
    Zr7     Zr   0.61067   0.57128   0.73552   1.000
    Zr8     Zr   0.38931   0.42870   0.26448   1.000
    Zr9     Zr   0.38931   0.42870   0.76448   1.000
    Zr10    Zr   0.38930   0.92870   0.26448   1.000
    Zr11    Zr   0.38932   0.92869   0.76448   1.000
    Zr12    Zr   0.88933   0.42870   0.26448   1.000
    Zr13    Zr   0.88933   0.42870   0.76448   1.000
    Zr14    Zr   0.88932   0.92870   0.26448   1.000
    Zr15    Zr   0.88934   0.92869   0.76448   1.000
    N16     N    0.49998   0.74999   0.24999   1.000
    O17     O    0.52414   0.69004   0.25511   1.000
    O18     O    0.48748   0.84728   0.24169   1.000
    O19     O    0.54282   0.88292   0.23445   1.000
    O20     O    0.66095   0.82876   0.24158   1.000
    O21     O    0.33902   0.67123   0.25839   1.000
    O22     O    0.47582   0.80994   0.24488   1.000
    O23     O    0.45714   0.61706   0.26555   1.000
    O24     O    0.51248   0.65270   0.25831   1.000
    N25     N    0.75000   0.49999   1.00000   1.000
    O26     O    0.78989   0.45165   0.90305   1.000
    O27     O    0.89000   0.54345   0.10194   1.000
    O28     O    0.70103   0.51360   0.88454   1.000
    O29     O    0.77070   0.47795   0.89178   1.000
    O30     O    0.72929   0.52202   0.10822   1.000
    O31     O    0.79896   0.48638   0.11546   1.000
    O32     O    0.60999   0.45653   0.89806   1.000
    O33     O    0.71011   0.54833   0.09695   1.000
    N34     N    0.49999   0.74999   0.75000   1.000
    O35     O    0.52415   0.69003   0.75510   1.000
    O36     O    0.33902   0.67122   0.75840   1.000
    O37     O    0.51249   0.65270   0.75831   1.000
    O38     O    0.45715   0.61705   0.76555   1.000
    O39     O    0.66096   0.82876   0.74159   1.000
    O40     O    0.47583   0.80994   0.74489   1.000
    O41     O    0.48749   0.84727   0.74169   1.000
    O42     O    0.54283   0.88292   0.73445   1.000
    N43     N    0.24999   0.49999   1.00000   1.000
    O44     O    0.39000   0.54345   0.10194   1.000
    O45     O    0.20102   0.51360   0.88454   1.000
    O46     O    0.27068   0.47795   0.89178   1.000
    O47     O    0.22928   0.52202   0.10822   1.000
    O48     O    0.29895   0.48638   0.11546   1.000
    O49     O    0.21010   0.54833   0.09695   1.000
    O50     O    0.10999   0.45653   0.89806   1.000
    O51     O    0.28987   0.45165   0.90305   1.000
    N52     N    0.24999   0.99999   1.00000   1.000
    O53     O    0.28987   0.95164   0.90305   1.000
    O54     O    0.27068   0.97795   0.89178   1.000
    O55     O    0.20102   0.01360   0.88454   1.000
    O56     O    0.22928   0.02203   0.10822   1.000
    O57     O    0.29895   0.98638   0.11546   1.000
    O58     O    0.21010   0.04833   0.09694   1.000
    O59     O    0.10999   0.95652   0.89806   1.000
    O60     O    0.39000   0.04345   0.10194   1.000
    N61     N    0.75000   0.99999   1.00000   1.000
    O62     O    0.78989   0.95164   0.90305   1.000
    O63     O    0.89000   0.04345   0.10194   1.000
    O64     O    0.77070   0.97795   0.89178   1.000
    O65     O    0.70103   0.01360   0.88454   1.000
    O66     O    0.72930   0.02203   0.10822   1.000
    O67     O    0.79896   0.98638   0.11546   1.000
    O68     O    0.60999   0.95652   0.89806   1.000
    O69     O    0.71012   0.04833   0.09694   1.000
    N70     N    0.99999   0.74999   0.75000   1.000
    O71     O    0.01249   0.65270   0.75832   1.000
    O72     O    0.95716   0.61705   0.76556   1.000
    O73     O    0.04282   0.88292   0.73443   1.000
    O74     O    0.98749   0.84727   0.74167   1.000
    O75     O    0.02415   0.69003   0.75512   1.000
    O76     O    0.83903   0.67122   0.75840   1.000
    O77     O    0.16095   0.82876   0.74159   1.000
    O78     O    0.97583   0.80994   0.74489   1.000
    N79     N    0.99999   0.24999   0.75000   1.000
    O80     O    0.97583   0.30994   0.74489   1.000
    O81     O    0.02415   0.19004   0.75511   1.000
    O82     O    0.83903   0.17123   0.75840   1.000
    O83     O    0.95716   0.11706   0.76556   1.000
    O84     O    0.01249   0.15271   0.75832   1.000
    O85     O    0.04282   0.38292   0.73445   1.000
    O86     O    0.98749   0.34728   0.74169   1.000
    O87     O    0.16095   0.32876   0.74159   1.000
    N88     N    0.99998   0.25000   0.24999   1.000
    O89     O    0.97582   0.30995   0.24489   1.000
    O90     O    0.02414   0.19005   0.25511   1.000
    O91     O    0.83903   0.17123   0.25839   1.000
    O92     O    0.01248   0.15271   0.25831   1.000
    O93     O    0.95715   0.11706   0.26555   1.000
    O94     O    0.16095   0.32877   0.24158   1.000
    O95     O    0.98749   0.34728   0.24169   1.000
    O96     O    0.04281   0.38293   0.23445   1.000
    N97     N    0.49999   0.24999   0.74999   1.000
    O98     O    0.48749   0.34728   0.74169   1.000
    O99     O    0.54283   0.38292   0.73445   1.000
    O100    O    0.52415   0.19004   0.75511   1.000
    O101    O    0.33902   0.17123   0.75839   1.000
    O102    O    0.51249   0.15271   0.75831   1.000
    O103    O    0.45715   0.11706   0.76555   1.000
    O104    O    0.66096   0.32876   0.74158   1.000
    O105    O    0.47583   0.30994   0.74489   1.000
    N106    N    0.99998   0.74999   0.24999   1.000
    O107    O    0.83902   0.67123   0.25839   1.000
    O108    O    0.01248   0.65270   0.25831   1.000
    O109    O    0.95715   0.61706   0.26555   1.000
    O110    O    0.98748   0.84728   0.24169   1.000
    O111    O    0.04282   0.88292   0.23444   1.000
    O112    O    0.02414   0.69004   0.25511   1.000
    O113    O    0.16094   0.82876   0.24158   1.000
    O114    O    0.97582   0.80994   0.24488   1.000
    N115    N    0.49998   0.25000   0.24999   1.000
    O116    O    0.48749   0.34728   0.24166   1.000
    O117    O    0.54282   0.38293   0.23442   1.000
    O118    O    0.52414   0.19005   0.25510   1.000
    O119    O    0.33902   0.17123   0.25839   1.000
    O120    O    0.51248   0.15271   0.25831   1.000
    O121    O    0.45714   0.11706   0.26555   1.000
    O122    O    0.66096   0.32877   0.24158   1.000
    O123    O    0.47582   0.30995   0.24489   1.000
    N124    N    0.24999   0.99999   0.49999   1.000
    O125    O    0.20102   0.01360   0.38452   1.000
    O126    O    0.27068   0.97795   0.39177   1.000
    O127    O    0.29895   0.98638   0.61546   1.000
    O128    O    0.22929   0.02202   0.60822   1.000
    O129    O    0.21011   0.04833   0.59694   1.000
    O130    O    0.10998   0.95653   0.39805   1.000
    O131    O    0.28987   0.95165   0.40305   1.000
    O132    O    0.39000   0.04345   0.60194   1.000
    N133    N    0.75000   0.99999   0.49995   1.000
    O134    O    0.78988   0.95165   0.40302   1.000
    O135    O    0.89001   0.04345   0.60192   1.000
    O136    O    0.77069   0.97795   0.39174   1.000
    O137    O    0.70103   0.01360   0.38450   1.000
    O138    O    0.72930   0.02203   0.60820   1.000
    O139    O    0.79897   0.98638   0.61544   1.000
    O140    O    0.60999   0.95653   0.39803   1.000
    O141    O    0.71012   0.04833   0.59692   1.000
    N142    N    0.75000   0.49999   0.49994   1.000
    O143    O    0.78988   0.45165   0.40302   1.000
    O144    O    0.77070   0.47795   0.39174   1.000
    O145    O    0.70103   0.51360   0.38450   1.000
    O146    O    0.79896   0.48638   0.61543   1.000
    O147    O    0.72930   0.52202   0.60819   1.000
    O148    O    0.89001   0.54344   0.60190   1.000
    O149    O    0.60999   0.45653   0.39803   1.000
    O150    O    0.71012   0.54833   0.59692   1.000
    N151    N    0.24999   0.49999   0.49997   1.000
    O152    O    0.39000   0.54344   0.60193   1.000
    O153    O    0.10998   0.45653   0.39804   1.000
    O154    O    0.27068   0.47795   0.39177   1.000
    O155    O    0.20101   0.51360   0.38453   1.000
    O156    O    0.29895   0.48638   0.61545   1.000
    O157    O    0.22929   0.52202   0.60821   1.000
    O158    O    0.21011   0.54833   0.59693   1.000
    O159    O    0.28987   0.45165   0.40304   1.000
loop_
    _geom_bond_atom_site_label_1
    _geom_bond_atom_site_label_2
    _geom_bond_distance
    _geom_bond_site_symmetry_2
    _ccdc_geom_bond_type
    N16    O17       1.24443      .   S
    Zr6    O17       2.61478      .   S
    N16    O18       2.00582      .   S
    Zr10   O18       2.01913      .   S
    N16    O19       2.85750      .   S
    Zr4    O19       4.07417  1_545   S
    N16    O20       2.62238      .   S
    Zr14   O20       3.63421      .   S
    N16    O21       2.62217      .   S
    Zr2    O21       3.63423      .   S
    N16    O22       1.24426      .   S
    Zr10   O22       2.61500      .   S
    N16    O23       2.85752      .   S
    Zr8    O23       4.07406      .   S
    N16    O24       2.00587      .   S
    Zr6    O24       2.01911      .   S
    N25    O26       2.53653      .   S
    Zr13   O26       3.43959      .   S
    N25    O27       3.17543  1_556   S
    Zr2    O27       4.23996  1_455   S
    N25    O28       2.77687      .   S
    Zr7    O28       3.77581      .   S
    N25    O29       2.59493      .   S
    Zr13   O29       3.39542      .   S
    N25    O30       2.59502  1_556   S
    Zr6    O30       3.39554      .   S
    N25    O31       2.77693  1_556   S
    Zr12   O31       3.77589      .   S
    N25    O32       3.17542      .   S
    Zr9    O32       4.24010      .   S
    N25    O33       2.53659  1_556   S
    Zr6    O33       3.43976      .   S
    N34    O35       1.24433      .   S
    Zr7    O35       2.61493      .   S
    N34    O36       2.62219      .   S
    Zr3    O36       3.63423      .   S
    N34    O37       2.00587      .   S
    Zr7    O37       2.01919      .   S
    N34    O38       2.85747      .   S
    Zr9    O38       4.07398      .   S
    N34    O39       2.62236      .   S
    Zr15   O39       3.63423      .   S
    N34    O40       1.24434      .   S
    Zr11   O40       2.61479      .   S
    N34    O41       2.00581      .   S
    Zr11   O41       2.01903      .   S
    N34    O42       2.85754      .   S
    Zr5    O42       4.07427  1_545   S
    N43    O44       3.17548  1_556   S
    Zr6    O44       4.24015      .   S
    N43    O45       2.77688      .   S
    Zr3    O45       3.77582      .   S
    N43    O46       2.59492      .   S
    Zr9    O46       3.39540      .   S
    N43    O47       2.59503  1_556   S
    Zr2    O47       3.39556      .   S
    N43    O48       2.77693  1_556   S
    Zr8    O48       3.77588      .   S
    N43    O49       2.53660  1_556   S
    Zr2    O49       3.43977      .   S
    N43    O50       3.17538      .   S
    Zr13   O50       4.23991  1_655   S
    N43    O51       2.53652      .   S
    Zr9    O51       3.43957      .   S
    N52    O53       2.53657      .   S
    Zr11   O53       3.43961      .   S
    N52    O54       2.59495      .   S
    Zr11   O54       3.39547      .   S
    N52    O55       2.77689  1_565   S
    Zr1    O55       3.77588      .   S
    N52    O56       2.59497  1_566   S
    Zr0    O56       3.39536      .   S
    N52    O57       2.77692  1_556   S
    Zr10   O57       3.77586      .   S
    N52    O58       2.53655  1_566   S
    Zr0    O58       3.43958      .   S
    N52    O59       3.17542      .   S
    Zr15   O59       4.23992  1_655   S
    N52    O60       3.17546  1_566   S
    Zr4    O60       4.24006      .   S
    N61    O62       2.53656      .   S
    Zr15   O62       3.43961      .   S
    N61    O63       3.17543  1_566   S
    Zr0    O63       4.23989  1_455   S
    N61    O64       2.59494      .   S
    Zr15   O64       3.39547      .   S
    N61    O65       2.77686  1_565   S
    Zr5    O65       3.77586      .   S
    N61    O66       2.59499  1_566   S
    Zr4    O66       3.39535      .   S
    N61    O67       2.77694  1_556   S
    Zr14   O67       3.77588      .   S
    N61    O68       3.17544      .   S
    Zr11   O68       4.24009      .   S
    N61    O69       2.53656  1_566   S
    Zr4    O69       3.43958      .   S
    N70    O71       2.00587  1_655   S
    Zr3    O71       2.01911      .   S
    N70    O72       2.85744      .   S
    Zr13   O72       4.07393      .   S
    N70    O73       2.85754  1_655   S
    Zr1    O73       4.07425  1_545   S
    N70    O74       2.00584      .   S
    Zr15   O74       2.01909      .   S
    N70    O75       1.24434  1_655   S
    Zr3    O75       2.61495      .   S
    N70    O76       2.62210      .   S
    Zr7    O76       3.63412      .   S
    N70    O77       2.62226  1_655   S
    Zr11   O77       3.63412      .   S
    N70    O78       1.24434      .   S
    Zr15   O78       2.61474      .   S
    N79    O80       1.24429      .   S
    Zr13   O80       2.61493      .   S
    N79    O81       1.24440  1_655   S
    Zr1    O81       2.61477      .   S
    N79    O82       2.62207      .   S
    Zr5    O82       3.63413      .   S
    N79    O83       2.85753      .   S
    Zr15   O83       4.07420  1_565   S
    N79    O84       2.00585  1_655   S
    Zr1    O84       2.01904      .   S
    N79    O85       2.85743  1_655   S
    Zr3    O85       4.07395      .   S
    N79    O86       2.00585      .   S
    Zr13   O86       2.01902      .   S
    N79    O87       2.62229  1_655   S
    Zr9    O87       3.63412      .   S
    N88    O89       1.24434      .   S
    Zr12   O89       2.61473      .   S
    N88    O90       1.24435  1_655   S
    Zr0    O90       2.61501      .   S
    N88    O91       2.62210      .   S
    Zr4    O91       3.63414      .   S
    N88    O92       2.00590  1_655   S
    Zr0    O92       2.01917      .   S
    N88    O93       2.85753      .   S
    Zr14   O93       4.07413  1_565   S
    N88    O94       2.62226  1_655   S
    Zr8    O94       3.63416      .   S
    N88    O95       2.00580      .   S
    Zr12   O95       2.01896      .   S
    N88    O96       2.85742  1_655   S
    Zr2    O96       4.07401      .   S
    N97    O98       2.00584      .   S
    Zr9    O98       2.01914      .   S
    N97    O99       2.85745      .   S
    Zr7    O99       4.07402      .   S
    N97    O100      1.24441      .   S
    Zr5    O100      2.61479      .   S
    N97    O101      2.62216      .   S
    Zr1    O101      3.63422      .   S
    N97    O102      2.00585      .   S
    Zr5    O102      2.01910      .   S
    N97    O103      2.85757      .   S
    Zr11   O103      4.07425  1_565   S
    N97    O104      2.62239      .   S
    Zr13   O104      3.63424      .   S
    N97    O105      1.24428      .   S
    Zr9    O105      2.61500      .   S
    N106   O107      2.62208      .   S
    Zr6    O107      3.63414      .   S
    N106   O108      2.00587  1_655   S
    Zr2    O108      2.01903      .   S
    N106   O109      2.85749      .   S
    Zr12   O109      4.07401      .   S
    N106   O110      2.00583      .   S
    Zr14   O110      2.01906      .   S
    N106   O111      2.85747  1_655   S
    Zr0    O111      4.07412  1_545   S
    N106   O112      1.24443  1_655   S
    Zr2    O112      2.61474      .   S
    N106   O113      2.62229  1_655   S
    Zr10   O113      3.63412      .   S
    N106   O114      1.24426      .   S
    Zr14   O114      2.61496      .   S
    N115   O116      2.00581      .   S
    Zr8    O116      2.01919      .   S
    N115   O117      2.85749      .   S
    Zr6    O117      4.07409      .   S
    N115   O118      1.24434      .   S
    Zr4    O118      2.61506      .   S
    N115   O119      2.62220      .   S
    Zr0    O119      3.63423      .   S
    N115   O120      2.00590      .   S
    Zr4    O120      2.01925      .   S
    N115   O121      2.85756      .   S
    Zr10   O121      4.07418  1_565   S
    N115   O122      2.62236      .   S
    Zr12   O122      3.63426      .   S
    N115   O123      1.24435      .   S
    Zr8    O123      2.61475      .   S
    N124   O125      2.77713  1_565   S
    Zr0    O125      3.77577      .   S
    N124   O126      2.59512      .   S
    Zr10   O126      3.39514      .   S
    N124   O127      2.77703      .   S
    Zr11   O127      3.77591      .   S
    N124   O128      2.59513  1_565   S
    Zr1    O128      3.39552      .   S
    N124   O129      2.53664  1_565   S
    Zr1    O129      3.43980      .   S
    N124   O130      3.17539      .   S
    Zr14   O130      4.23993  1_655   S
    N124   O131      2.53649      .   S
    Zr10   O131      3.43951      .   S
    N124   O132      3.17559  1_565   S
    Zr5    O132      4.24018      .   S
    N133   O134      2.53601      .   S
    Zr14   O134      3.43903      .   S
    N133   O135      3.17598  1_565   S
    Zr1    O135      4.24041  1_455   S
    N133   O136      2.59460      .   S
    Zr14   O136      3.39469      .   S
    N133   O137      2.77660  1_565   S
    Zr4    O137      3.77527      .   S
    N133   O138      2.59565  1_565   S
    Zr5    O138      3.39597      .   S
    N133   O139      2.77756      .   S
    Zr15   O139      3.77641      .   S
    N133   O140      3.17501      .   S
    Zr10   O140      4.23970      .   S
    N133   O141      2.53712  1_565   S
    Zr5    O141      3.44028      .   S
    N142   O143      2.53588      .   S
    Zr12   O143      3.43893      .   S
    N142   O144      2.59446      .   S
    Zr12   O144      3.39461      .   S
    N142   O145      2.77642      .   S
    Zr6    O145      3.77500      .   S
    N142   O146      2.77769      .   S
    Zr13   O146      3.77648      .   S
    N142   O147      2.59576      .   S
    Zr7    O147      3.39603      .   S
    N142   O148      3.17582      .   S
    Zr3    O148      4.24074  1_455   S
    N142   O149      3.17486      .   S
    Zr8    O149      4.23955      .   S
    N142   O150      2.53720      .   S
    Zr7    O150      3.44037      .   S
    N151   O152      3.17574      .   S
    Zr7    O152      4.24036      .   S
    N151   O153      3.17517      .   S
    Zr12   O153      4.23970  1_655   S
    N151   O154      2.59466      .   S
    Zr8    O154      3.39519      .   S
    N151   O155      2.77663      .   S
    Zr2    O155      3.77563      .   S
    N151   O156      2.77725      .   S
    Zr9    O156      3.77606      .   S
    N151   O157      2.59533      .   S
    Zr3    O157      3.39566      .   S
    N151   O158      2.53680      .   S
    Zr3    O158      3.43998      .   S
    N151   O159      2.53628      .   S
    Zr8    O159      3.43933      .   S
