# CIF file generated by openbabel 2.4.90, see http://openbabel.sf.net
data_I
_chemical_name_common ''
_cell_length_a 11.706
_cell_length_b 20.742
_cell_length_c 23.396
_cell_angle_alpha 86.75
_cell_angle_beta 87.624
_cell_angle_gamma 83.614
_space_group_name_H-M_alt 'P 1'
_space_group_name_Hall 'P 1'
loop_
    _symmetry_equiv_pos_as_xyz
    x,y,z
loop_
    _atom_site_label
    _atom_site_type_symbol
    _atom_site_fract_x
    _atom_site_fract_y
    _atom_site_fract_z
    _atom_site_occupancy
    N0      N    0.49998   0.74999   0.24999   1.000
    N1      N    0.75000   0.49999   1.00000   1.000
    N2      N    0.49999   0.74999   0.75000   1.000
    N3      N    0.24999   0.49999   1.00000   1.000
    N4      N    0.24999   0.99999   1.00000   1.000
    N5      N    0.75000   0.99999   1.00000   1.000
    N6      N    0.99999   0.74999   0.75000   1.000
    N7      N    0.99999   0.24999   0.75000   1.000
    N8      N    0.99998   0.25000   0.24999   1.000
    N9      N    0.49999   0.24999   0.74999   1.000
    N10     N    0.99998   0.74999   0.24999   1.000
    N11     N    0.49998   0.25000   0.24999   1.000
    N12     N    0.24999   0.99999   0.49999   1.000
    N13     N    0.75000   0.99999   0.49995   1.000
    N14     N    0.75000   0.49999   0.49994   1.000
    N15     N    0.24999   0.49999   0.49997   1.000
    Zr16    Zr   0.38931   0.42870   0.26448   1.000
    O17     O    0.33000   0.45333   0.32812   1.000
    O18     O    0.49965   0.44261   0.33125   1.000
    O19     O    0.43840   0.38799   0.25307   1.000
    O20     O    0.34413   0.45754   0.18997   1.000
    O21     O    0.43257   0.36933   0.25468   1.000
    O22     O    0.27513   0.37873   0.25303   1.000
    O23     O    0.33959   0.44017   0.33376   1.000
    O24     O    0.42323   0.52288   0.26502   1.000
    Zr25    Zr   0.11065   0.57128   0.73552   1.000
    O26     O    0.16997   0.54665   0.67186   1.000
    O27     O    0.00033   0.55736   0.66871   1.000
    O28     O    0.06157   0.61199   0.74692   1.000
    O29     O    0.06740   0.63065   0.74532   1.000
    O30     O    0.16038   0.55980   0.66623   1.000
    O31     O    0.15584   0.54244   0.81003   1.000
    O32     O    0.22484   0.62125   0.74696   1.000
    O33     O    0.07674   0.47710   0.73499   1.000
    Zr34    Zr   0.38931   0.42870   0.76448   1.000
    O35     O    0.34413   0.45754   0.68996   1.000
    O36     O    0.33000   0.45333   0.82813   1.000
    O37     O    0.42323   0.52288   0.76502   1.000
    O38     O    0.43840   0.38799   0.75308   1.000
    O39     O    0.33959   0.44017   0.83376   1.000
    O40     O    0.27513   0.37873   0.75304   1.000
    O41     O    0.49965   0.44261   0.83127   1.000
    O42     O    0.43257   0.36932   0.75468   1.000
    Zr43    Zr   0.61067   0.07129   0.23551   1.000
    O44     O    0.56741   0.13067   0.24531   1.000
    O45     O    0.66998   0.04666   0.17186   1.000
    O46     O    0.50033   0.05737   0.16872   1.000
    O47     O    0.66039   0.05981   0.16623   1.000
    O48     O    0.56157   0.11200   0.24691   1.000
    O49     O    0.72485   0.12126   0.24695   1.000
    O50     O    0.65585   0.04244   0.31001   1.000
    O51     O    0.57675   0.97711   0.23498   1.000
    Zr52    Zr   0.88933   0.42870   0.26448   1.000
    O53     O    0.83001   0.45333   0.32811   1.000
    O54     O    0.83961   0.44017   0.33375   1.000
    O55     O    0.99966   0.44262   0.33126   1.000
    O56     O    0.92324   0.52288   0.26502   1.000
    O57     O    0.77514   0.37873   0.25303   1.000
    O58     O    0.93258   0.36933   0.25468   1.000
    O59     O    0.93841   0.38799   0.25308   1.000
    O60     O    0.84415   0.45754   0.18997   1.000
    Zr61    Zr   0.38932   0.92869   0.76448   1.000
    O62     O    0.27514   0.87872   0.75304   1.000
    O63     O    0.43841   0.88798   0.75309   1.000
    O64     O    0.43257   0.86931   0.75469   1.000
    O65     O    0.49965   0.94261   0.83127   1.000
    O66     O    0.33000   0.95332   0.82813   1.000
    O67     O    0.33959   0.94017   0.83376   1.000
    O68     O    0.34414   0.95753   0.68997   1.000
    O69     O    0.42323   0.02287   0.76502   1.000
    Zr70    Zr   0.61066   0.57129   0.23552   1.000
    O71     O    0.65584   0.54244   0.31001   1.000
    O72     O    0.57674   0.47711   0.23497   1.000
    O73     O    0.50033   0.55737   0.16873   1.000
    O74     O    0.72484   0.62126   0.24696   1.000
    O75     O    0.66998   0.54665   0.17187   1.000
    O76     O    0.66039   0.55981   0.16623   1.000
    O77     O    0.56740   0.63066   0.24531   1.000
    O78     O    0.56157   0.61200   0.24692   1.000
    Zr79    Zr   0.61067   0.57128   0.73552   1.000
    O80     O    0.66040   0.55980   0.66622   1.000
    O81     O    0.72485   0.62125   0.74696   1.000
    O82     O    0.50034   0.55736   0.66872   1.000
    O83     O    0.56741   0.63066   0.74531   1.000
    O84     O    0.66999   0.54665   0.67186   1.000
    O85     O    0.56158   0.61199   0.74692   1.000
    O86     O    0.57675   0.47710   0.73498   1.000
    O87     O    0.65585   0.54244   0.81003   1.000
    Zr88    Zr   0.11064   0.57129   0.23552   1.000
    O89     O    0.15583   0.54244   0.31002   1.000
    O90     O    0.16996   0.54665   0.17187   1.000
    O91     O    0.16037   0.55981   0.16623   1.000
    O92     O    0.06739   0.63066   0.24531   1.000
    O93     O    0.07673   0.47711   0.23498   1.000
    O94     O    0.06156   0.61199   0.24692   1.000
    O95     O    0.00032   0.55737   0.16873   1.000
    O96     O    0.22483   0.62126   0.24696   1.000
    Zr97    Zr   0.88932   0.92870   0.26448   1.000
    O98     O    0.93257   0.86932   0.25468   1.000
    O99     O    0.93840   0.88799   0.25308   1.000
    O100    O    0.84414   0.95754   0.18997   1.000
    O101    O    0.99965   0.94261   0.33127   1.000
    O102    O    0.92323   0.02288   0.26502   1.000
    O103    O    0.83001   0.95333   0.32811   1.000
    O104    O    0.83960   0.94017   0.33375   1.000
    O105    O    0.77514   0.87873   0.25303   1.000
    Zr106   Zr   0.61067   0.07129   0.73552   1.000
    O107    O    0.56741   0.13066   0.74531   1.000
    O108    O    0.57675   0.97710   0.73499   1.000
    O109    O    0.65585   0.04244   0.81003   1.000
    O110    O    0.50033   0.05737   0.66873   1.000
    O111    O    0.72485   0.12126   0.74696   1.000
    O112    O    0.66039   0.05981   0.66622   1.000
    O113    O    0.66998   0.04666   0.67186   1.000
    O114    O    0.56158   0.11200   0.74692   1.000
    Zr115   Zr   0.38930   0.92870   0.26448   1.000
    O116    O    0.33958   0.94017   0.33376   1.000
    O117    O    0.27512   0.87873   0.25303   1.000
    O118    O    0.34413   0.95754   0.18997   1.000
    O119    O    0.42322   0.02288   0.26501   1.000
    O120    O    0.32999   0.95333   0.32812   1.000
    O121    O    0.49964   0.94261   0.33126   1.000
    O122    O    0.43839   0.88799   0.25308   1.000
    O123    O    0.43256   0.86932   0.25468   1.000
    Zr124   Zr   0.88934   0.92869   0.76448   1.000
    O125    O    0.93842   0.88798   0.75308   1.000
    O126    O    0.93258   0.86931   0.75469   1.000
    O127    O    0.99966   0.94261   0.83127   1.000
    O128    O    0.83961   0.94017   0.83376   1.000
    O129    O    0.83002   0.95332   0.82813   1.000
    O130    O    0.77515   0.87872   0.75303   1.000
    O131    O    0.92325   0.02287   0.76502   1.000
    O132    O    0.84415   0.95753   0.68996   1.000
    Zr133   Zr   0.11065   0.07129   0.23551   1.000
    O134    O    0.15583   0.04244   0.31002   1.000
    O135    O    0.16038   0.05981   0.16623   1.000
    O136    O    0.22483   0.12126   0.24695   1.000
    O137    O    0.00033   0.05737   0.16872   1.000
    O138    O    0.16997   0.04666   0.17186   1.000
    O139    O    0.07673   0.97710   0.23498   1.000
    O140    O    0.06740   0.13067   0.24531   1.000
    O141    O    0.06156   0.11200   0.24691   1.000
    Zr142   Zr   0.88933   0.42870   0.76448   1.000
    O143    O    0.92324   0.52288   0.76502   1.000
    O144    O    0.93258   0.36932   0.75469   1.000
    O145    O    0.77515   0.37873   0.75303   1.000
    O146    O    0.84415   0.45754   0.68996   1.000
    O147    O    0.99966   0.44262   0.83127   1.000
    O148    O    0.93841   0.38799   0.75309   1.000
    O149    O    0.83002   0.45333   0.82813   1.000
    O150    O    0.83961   0.44017   0.83376   1.000
    Zr151   Zr   0.11065   0.07129   0.73552   1.000
    O152    O    0.22484   0.12126   0.74696   1.000
    O153    O    0.07674   0.97710   0.73498   1.000
    O154    O    0.06740   0.13066   0.74532   1.000
    O155    O    0.15583   0.04244   0.81003   1.000
    O156    O    0.06157   0.11200   0.74692   1.000
    O157    O    0.16038   0.05981   0.66623   1.000
    O158    O    0.16997   0.04666   0.67187   1.000
    O159    O    0.00033   0.05737   0.66872   1.000
loop_
    _geom_bond_atom_site_label_1
    _geom_bond_atom_site_label_2
    _geom_bond_distance
    _geom_bond_site_symmetry_2
    _ccdc_geom_bond_type
    Zr16   O17       1.69759      .   S
    N15    O17       4.23162      .   S
    Zr16   O18       2.11977      .   S
    N14    O18       5.27697      .   S
    Zr16   O19       1.00959      .   S
    N11    O19       2.87704      .   S
    Zr16   O20       1.88794      .   S
    N3     O20       4.63581  1_556   S
    Zr16   O21       1.30738      .   S
    N11    O21       2.51992      .   S
    Zr16   O22       1.81708      .   S
    N8     O22       4.41171  1_655   S
    Zr16   O23       1.71967      .   S
    N15    O23       4.20492      .   S
    Zr16   O24       2.03703      .   S
    N0     O24       4.88363      .   S
    Zr25   O26       1.69783      .   S
    N15    O26       4.23254      .   S
    Zr25   O27       2.12037      .   S
    N14    O27       5.27853  1_655   S
    Zr25   O28       1.00956      .   S
    N6     O28       2.87718  1_655   S
    Zr25   O29       1.30747      .   S
    N6     O29       2.51998  1_655   S
    Zr25   O30       1.71999      .   S
    N15    O30       4.20576      .   S
    Zr25   O31       1.88791      .   S
    N3     O31       4.63573      .   S
    Zr25   O32       1.81711      .   S
    N2     O32       4.41173      .   S
    Zr25   O33       2.03698      .   S
    N7     O33       4.88350  1_655   S
    Zr34   O35       1.88803      .   S
    N15    O35       4.63621      .   S
    Zr34   O36       1.69770      .   S
    N3     O36       4.23199      .   S
    Zr34   O37       2.03699      .   S
    N2     O37       4.88354      .   S
    Zr34   O38       1.00957      .   S
    N9     O38       2.87716      .   S
    Zr34   O39       1.71978      .   S
    N3     O39       4.20529      .   S
    Zr34   O40       1.81706      .   S
    N7     O40       4.41173  1_655   S
    Zr34   O41       2.12005      .   S
    N1     O41       5.27780      .   S
    Zr34   O42       1.30750      .   S
    N9     O42       2.51996      .   S
    Zr43   O44       1.30753      .   S
    N11    O44       2.52002      .   S
    Zr43   O45       1.69768      .   S
    N5     O45       4.23203  1_566   S
    Zr43   O46       2.12003      .   S
    N4     O46       5.27782  1_566   S
    Zr43   O47       1.71979      .   S
    N5     O47       4.20531  1_566   S
    Zr43   O48       1.00963      .   S
    N11    O48       2.87722      .   S
    Zr43   O49       1.81707      .   S
    N8     O49       4.41160      .   S
    Zr43   O50       1.88764      .   S
    N13    O50       4.63517  1_565   S
    Zr43   O51       2.03708  1_545   S
    N0     O51       4.88368      .   S
    Zr52   O53       1.69731      .   S
    N14    O53       4.23111      .   S
    Zr52   O54       1.71947      .   S
    N14    O54       4.20431      .   S
    Zr52   O55       2.11985      .   S
    N15    O55       5.27736  1_455   S
    Zr52   O56       2.03700      .   S
    N10    O56       4.88357      .   S
    Zr52   O57       1.81713      .   S
    N11    O57       4.41186      .   S
    Zr52   O58       1.30736      .   S
    N8     O58       2.51990      .   S
    Zr52   O59       1.00948      .   S
    N8     O59       2.87705      .   S
    Zr52   O60       1.88794      .   S
    N1     O60       4.63581  1_556   S
    Zr61   O62       1.81706      .   S
    N6     O62       4.41170  1_655   S
    Zr61   O63       1.00952      .   S
    N2     O63       2.87709      .   S
    Zr61   O64       1.30739      .   S
    N2     O64       2.51992      .   S
    Zr61   O65       2.12005      .   S
    N5     O65       5.27782      .   S
    Zr61   O66       1.69773      .   S
    N4     O66       4.23205      .   S
    Zr61   O67       1.71980      .   S
    N4     O67       4.20536      .   S
    Zr61   O68       1.88795      .   S
    N12    O68       4.63591      .   S
    Zr61   O69       2.03712  1_565   S
    N9     O69       4.88377      .   S
    Zr70   O71       1.88750      .   S
    N14    O71       4.63485      .   S
    Zr70   O72       2.03705      .   S
    N11    O72       4.88359      .   S
    Zr70   O73       2.12007      .   S
    N3     O73       5.27789  1_556   S
    Zr70   O74       1.81707      .   S
    N10    O74       4.41158      .   S
    Zr70   O75       1.69777      .   S
    N1     O75       4.23216  1_556   S
    Zr70   O76       1.71988      .   S
    N1     O76       4.20544  1_556   S
    Zr70   O77       1.30739      .   S
    N0     O77       2.52000      .   S
    Zr70   O78       1.00956      .   S
    N0     O78       2.87714      .   S
    Zr79   O80       1.72019      .   S
    N14    O80       4.20637      .   S
    Zr79   O81       1.81706      .   S
    N6     O81       4.41159      .   S
    Zr79   O82       2.12018      .   S
    N15    O82       5.27825      .   S
    Zr79   O83       1.30747      .   S
    N2     O83       2.52000      .   S
    Zr79   O84       1.69802      .   S
    N14    O84       4.23316      .   S
    Zr79   O85       1.00960      .   S
    N2     O85       2.87718      .   S
    Zr79   O86       2.03701      .   S
    N9     O86       4.88356      .   S
    Zr79   O87       1.88791      .   S
    N1     O87       4.63572      .   S
    Zr88   O89       1.88782      .   S
    N15    O89       4.63539      .   S
    Zr88   O90       1.69778      .   S
    N3     O90       4.23218  1_556   S
    Zr88   O91       1.71989      .   S
    N3     O91       4.20545  1_556   S
    Zr88   O92       1.30737      .   S
    N10    O92       2.51999  1_655   S
    Zr88   O93       2.03701      .   S
    N8     O93       4.88353  1_655   S
    Zr88   O94       1.00951      .   S
    N10    O94       2.87713  1_655   S
    Zr88   O95       2.11998      .   S
    N1     O95       5.27776  1_656   S
    Zr88   O96       1.81712      .   S
    N0     O96       4.41172      .   S
    Zr97   O98       1.30748      .   S
    N10    O98       2.51991      .   S
    Zr97   O99       1.00953      .   S
    N10    O99       2.87714      .   S
    Zr97   O100      1.88794      .   S
    N5     O100      4.63581  1_556   S
    Zr97   O101      2.11996      .   S
    N12    O101      5.27769  1_455   S
    Zr97   O102      2.03707  1_565   S
    N8     O102      4.88367      .   S
    Zr97   O103      1.69734      .   S
    N13    O103      4.23129      .   S
    Zr97   O104      1.71952      .   S
    N13    O104      4.20449      .   S
    Zr97   O105      1.81711      .   S
    N0     O105      4.41186      .   S
    Zr106  O107      1.30739      .   S
    N9     O107      2.51997      .   S
    Zr106  O108      2.03713  1_545   S
    N2     O108      4.88378      .   S
    Zr106  O109      1.88793      .   S
    N5     O109      4.63572  1_565   S
    Zr106  O110      2.12009      .   S
    N12    O110      5.27802  1_565   S
    Zr106  O111      1.81707      .   S
    N7     O111      4.41157      .   S
    Zr106  O112      1.72014      .   S
    N13    O112      4.20624  1_565   S
    Zr106  O113      1.69799      .   S
    N13    O113      4.23301  1_565   S
    Zr106  O114      1.00955      .   S
    N9     O114      2.87711      .   S
    Zr115  O116      1.71976      .   S
    N12    O116      4.20523      .   S
    Zr115  O117      1.81706      .   S
    N10    O117      4.41172  1_655   S
    Zr115  O118      1.88793      .   S
    N4     O118      4.63577  1_556   S
    Zr115  O119      2.03709  1_565   S
    N11    O119      4.88373      .   S
    Zr115  O120      1.69757      .   S
    N12    O120      4.23204      .   S
    Zr115  O121      2.11985      .   S
    N13    O121      5.27719      .   S
    Zr115  O122      1.00956      .   S
    N0     O122      2.87714      .   S
    Zr115  O123      1.30750      .   S
    N0     O123      2.51993      .   S
    Zr124  O125      1.00954      .   S
    N6     O125      2.87706      .   S
    Zr124  O126      1.30737      .   S
    N6     O126      2.51991      .   S
    Zr124  O127      2.11996      .   S
    N4     O127      5.27771  1_455   S
    Zr124  O128      1.71980      .   S
    N5     O128      4.20535      .   S
    Zr124  O129      1.69773      .   S
    N5     O129      4.23204      .   S
    Zr124  O130      1.81712      .   S
    N2     O130      4.41184      .   S
    Zr124  O131      2.03710  1_565   S
    N7     O131      4.88371      .   S
    Zr124  O132      1.88820      .   S
    N13    O132      4.63669      .   S
    Zr133  O134      1.88789      .   S
    N12    O134      4.63595  1_565   S
    Zr133  O135      1.71979      .   S
    N4     O135      4.20530  1_566   S
    Zr133  O136      1.81712      .   S
    N11    O136      4.41174      .   S
    Zr133  O137      2.11994      .   S
    N5     O137      5.27771  1_666   S
    Zr133  O138      1.69768      .   S
    N4     O138      4.23202  1_566   S
    Zr133  O139      2.03706  1_545   S
    N10    O139      4.88363  1_655   S
    Zr133  O140      1.30750      .   S
    N8     O140      2.52002  1_655   S
    Zr133  O141      1.00958      .   S
    N8     O141      2.87722  1_655   S
    Zr142  O143      2.03696      .   S
    N6     O143      4.88348      .   S
    Zr142  O144      1.30747      .   S
    N7     O144      2.51993      .   S
    Zr142  O145      1.81712      .   S
    N9     O145      4.41188      .   S
    Zr142  O146      1.88824      .   S
    N14    O146      4.63687      .   S
    Zr142  O147      2.11995      .   S
    N3     O147      5.27766  1_455   S
    Zr142  O148      1.00951      .   S
    N7     O148      2.87715      .   S
    Zr142  O149      1.69771      .   S
    N1     O149      4.23201      .   S
    Zr142  O150      1.71979      .   S
    N1     O150      4.20531      .   S
    Zr151  O152      1.81711      .   S
    N9     O152      4.41170      .   S
    Zr151  O153      2.03713  1_545   S
    N6     O153      4.88372  1_655   S
    Zr151  O154      1.30739      .   S
    N7     O154      2.51997  1_655   S
    Zr151  O155      1.88794      .   S
    N4     O155      4.63576  1_565   S
    Zr151  O156      1.00952      .   S
    N7     O156      2.87712  1_655   S
    Zr151  O157      1.71990      .   S
    N12    O157      4.20550  1_565   S
    Zr151  O158      1.69776      .   S
    N12    O158      4.23226  1_565   S
    Zr151  O159      2.12020      .   S
    N13    O159      5.27852  1_665   S
