# CIF file generated by openbabel 2.4.90, see http://openbabel.sf.net
data_I
_chemical_name_common ''
_cell_length_a 12.124
_cell_length_b 15.264
_cell_length_c 15.916
_cell_angle_alpha 89.962
_cell_angle_beta 89.998
_cell_angle_gamma 89.986
_space_group_name_H-M_alt 'P 1'
_space_group_name_Hall 'P 1'
loop_
    _symmetry_equiv_pos_as_xyz
    x,y,z
loop_
    _atom_site_label
    _atom_site_type_symbol
    _atom_site_fract_x
    _atom_site_fract_y
    _atom_site_fract_z
    _atom_site_occupancy
    H0      H    0.64498   0.62173   0.90051   1.000
    H1      H    0.71509   0.91442   0.78208   1.000
    H2      H    0.53180   0.67225   0.77650   1.000
    H3      H    0.81835   0.85530   0.90596   1.000
    H4      H    0.35509   0.37818   0.90040   1.000
    H5      H    0.28469   0.08561   0.78217   1.000
    H6      H    0.46824   0.32765   0.77644   1.000
    H7      H    0.18145   0.14472   0.90600   1.000
    H8      H    0.85510   0.12178   0.59968   1.000
    H9      H    0.78468   0.41442   0.71780   1.000
    H10     H    0.96828   0.17233   0.72360   1.000
    H11     H    0.68141   0.35529   0.59400   1.000
    H12     H    0.14492   0.87838   0.59953   1.000
    H13     H    0.21513   0.58563   0.71785   1.000
    H14     H    0.03172   0.82781   0.72350   1.000
    H15     H    0.31841   0.64479   0.59402   1.000
    H16     H    0.35502   0.37830   0.09950   1.000
    H17     H    0.28483   0.08563   0.21795   1.000
    H18     H    0.46824   0.32774   0.22348   1.000
    H19     H    0.18154   0.14477   0.09410   1.000
    H20     H    0.64490   0.62171   0.09960   1.000
    H21     H    0.71523   0.91432   0.21780   1.000
    H22     H    0.53173   0.67226   0.22361   1.000
    H23     H    0.81848   0.85519   0.09401   1.000
    H24     H    0.14486   0.87818   0.40034   1.000
    H25     H    0.21525   0.58553   0.28222   1.000
    H26     H    0.03172   0.82765   0.27641   1.000
    H27     H    0.31849   0.64465   0.40601   1.000
    H28     H    0.85507   0.12171   0.40053   1.000
    H29     H    0.78476   0.41441   0.28212   1.000
    H30     H    0.96826   0.17226   0.27655   1.000
    H31     H    0.68150   0.35527   0.40597   1.000
    C32     C    0.61551   0.79744   0.76900   1.000
    C33     C    0.55790   0.82791   0.69423   1.000
    C34     C    0.65530   0.68658   0.87265   1.000
    C35     C    0.69646   0.84976   0.80727   1.000
    C36     C    0.59442   0.71463   0.80387   1.000
    C37     C    0.75337   0.81722   0.87602   1.000
    C38     C    0.38439   0.20252   0.76905   1.000
    C39     C    0.44200   0.17206   0.69428   1.000
    C40     C    0.34469   0.31335   0.87259   1.000
    C41     C    0.30337   0.15024   0.80732   1.000
    C42     C    0.40556   0.28530   0.80383   1.000
    C43     C    0.24648   0.18278   0.87604   1.000
    C44     C    0.88441   0.29749   0.73096   1.000
    C45     C    0.84470   0.18662   0.62747   1.000
    C46     C    0.80336   0.34978   0.69268   1.000
    C47     C    0.90558   0.21469   0.69620   1.000
    C48     C    0.74646   0.31722   0.62399   1.000
    C49     C    0.11549   0.70261   0.73094   1.000
    C50     C    0.05787   0.67211   0.80573   1.000
    C51     C    0.15527   0.81352   0.62737   1.000
    C52     C    0.19649   0.65030   0.69260   1.000
    C53     C    0.09437   0.78544   0.69613   1.000
    C54     C    0.25340   0.68287   0.62396   1.000
    C55     C    0.38447   0.20257   0.23097   1.000
    C56     C    0.44210   0.17209   0.30577   1.000
    C57     C    0.34469   0.31345   0.12736   1.000
    C58     C    0.30347   0.15028   0.19275   1.000
    C59     C    0.40558   0.28538   0.19612   1.000
    C60     C    0.24655   0.18283   0.12400   1.000
    C61     C    0.61555   0.79740   0.23090   1.000
    C62     C    0.55793   0.82789   0.30570   1.000
    C63     C    0.65528   0.68654   0.12740   1.000
    C64     C    0.69656   0.84968   0.19268   1.000
    C65     C    0.59440   0.71461   0.19620   1.000
    C66     C    0.75346   0.81713   0.12397   1.000
    C67     C    0.11556   0.70248   0.26906   1.000
    C68     C    0.05797   0.67203   0.19428   1.000
    C69     C    0.15526   0.81333   0.37256   1.000
    C70     C    0.19658   0.65018   0.30734   1.000
    C71     C    0.09439   0.78529   0.30381   1.000
    C72     C    0.25347   0.68272   0.37605   1.000
    C73     C    0.88444   0.29745   0.26907   1.000
    C74     C    0.84470   0.18657   0.37268   1.000
    C75     C    0.80343   0.34975   0.30730   1.000
    C76     C    0.90559   0.21463   0.30391   1.000
    C77     C    0.74653   0.31720   0.37604   1.000
    N78     N    0.51259   0.90613   0.59042   1.000
    N79     N    0.45276   0.83204   0.58852   1.000
    N80     N    0.47970   0.78131   0.65315   1.000
    N81     N    0.57917   0.90540   0.65633   1.000
    N82     N    0.73412   0.73681   0.90822   1.000
    N83     N    0.48728   0.09387   0.59052   1.000
    N84     N    0.54723   0.16790   0.58864   1.000
    N85     N    0.52031   0.21861   0.65324   1.000
    N86     N    0.42063   0.09462   0.65600   1.000
    N87     N    0.26580   0.26315   0.90818   1.000
    N88     N    0.76578   0.23682   0.59187   1.000
    N89     N    0.01261   0.59386   0.90953   1.000
    N90     N    0.95270   0.66794   0.91142   1.000
    N91     N    0.97962   0.71869   0.84680   1.000
    N92     N    0.07921   0.59462   0.84363   1.000
    N93     N    0.23413   0.76330   0.59180   1.000
    N94     N    0.48741   0.09384   0.40956   1.000
    N95     N    0.54726   0.16792   0.41146   1.000
    N96     N    0.52031   0.21867   0.34680   1.000
    N97     N    0.42082   0.09459   0.34366   1.000
    N98     N    0.26582   0.26324   0.09181   1.000
    N99     N    0.51267   0.90612   0.40946   1.000
    N100    N    0.45267   0.83211   0.41134   1.000
    N101    N    0.47958   0.78138   0.34677   1.000
    N102    N    0.57934   0.90533   0.34360   1.000
    N103    N    0.73415   0.73674   0.09185   1.000
    N104    N    0.01273   0.59387   0.09051   1.000
    N105    N    0.95278   0.66793   0.08861   1.000
    N106    N    0.97968   0.71862   0.15321   1.000
    N107    N    0.07934   0.59458   0.15640   1.000
    N108    N    0.23416   0.76312   0.40816   1.000
    N109    N    0.76582   0.23679   0.40824   1.000
loop_
    _geom_bond_atom_site_label_1
    _geom_bond_atom_site_label_2
    _geom_bond_distance
    _geom_bond_site_symmetry_2
    _ccdc_geom_bond_type
    N105   N104      1.34414  1_655   S
    N105   N106      1.32794      .   S
    N104   N107      1.32375      .   S
    N98    C60       1.35009      .   S
    N98    C57       1.35004      .   S
    N103   C66       1.35011      .   S
    N103   C63       1.34965      .   S
    H23    C66       1.08907      .   S
    H19    C60       1.08900      .   S
    H16    C57       1.09161      .   S
    H20    C63       1.09162      .   S
    C66    C64       1.38532      .   S
    C60    C58       1.38552      .   S
    C57    C59       1.38767      .   S
    C63    C65       1.38844      .   S
    N106   C68       1.35391  1_655   S
    N107   C68       1.35240      .   S
    C64    H21       1.08864      .   S
    C64    C61       1.40401      .   S
    C58    H17       1.08874      .   S
    C58    C55       1.40447      .   S
    C68    C67       1.45639      .   S
    C59    H18       1.08871      .   S
    C59    C55       1.40361      .   S
    C65    H22       1.08871      .   S
    C65    C61       1.40320      .   S
    C61    C62       1.45685      .   S
    C55    C56       1.45640      .   S
    C67    C71       1.40356      .   S
    C67    C70       1.40442      .   S
    C73    C76       1.40360      .   S
    C73    C75       1.40445      .   S
    H26    C71       1.08868      .   S
    H30    C76       1.08869      .   S
    H29    C75       1.08868      .   S
    H25    C70       1.08873      .   S
    C71    C69       1.38782      .   S
    C76    C74       1.38776      .   S
    C62    N102      1.35261      .   S
    C62    N101      1.35404      .   S
    C56    N97       1.35235      .   S
    C56    N96       1.35353      .   S
    C75    C77       1.38535      .   S
    C70    C72       1.38539      .   S
    N102   N99       1.32370      .   S
    N97    N94       1.32369      .   S
    N101   N100      1.32785      .   S
    N96    N95       1.32846      .   S
    C69    H24       1.09158      .   S
    C69    N108      1.35004      .   S
    C74    H28       1.09161      .   S
    C74    N109      1.35008      .   S
    C77    H31       1.08913      .   S
    C77    N109      1.35014      .   S
    C72    H27       1.08909      .   S
    C72    N108      1.35011      .   S
    N99    N100      1.34406      .   S
    N94    N95       1.34407      .   S
    N79    N78       1.34409      .   S
    N79    N80       1.32788      .   S
    N84    N83       1.34410      .   S
    N84    N85       1.32797      .   S
    N78    N81       1.32373      .   S
    N83    N86       1.31879      .   S
    N93    C54       1.35012      .   S
    N93    C51       1.35002      .   S
    N88    C48       1.35021      .   S
    N88    C45       1.35007      .   S
    H11    C48       1.08938      .   S
    H15    C54       1.08912      .   S
    H12    C51       1.09166      .   S
    H8     C45       1.09163      .   S
    C54    C52       1.38424      .   S
    C48    C46       1.38531      .   S
    C51    C53       1.38777      .   S
    C45    C47       1.38776      .   S
    N80    C33       1.35392      .   S
    N85    C39       1.35378      .   S
    N86    C39       1.35523      .   S
    N81    C33       1.35235      .   S
    C52    H13       1.08923      .   S
    C52    C49       1.40510      .   S
    C46    H9        1.08873      .   S
    C46    C44       1.40449      .   S
    C33    C32       1.45585      .   S
    C39    C38       1.45629      .   S
    C53    H14       1.08865      .   S
    C53    C49       1.40358      .   S
    C47    H10       1.08872      .   S
    C47    C44       1.40362      .   S
    C49    C50       1.45631      .   S
    C32    C36       1.40376      .   S
    C32    C35       1.40466      .   S
    C38    C42       1.40359      .   S
    C38    C41       1.40445      .   S
    H6     C42       1.08867      .   S
    H2     C36       1.08867      .   S
    H1     C35       1.08871      .   S
    H5     C41       1.08873      .   S
    C42    C40       1.38779      .   S
    C36    C34       1.38773      .   S
    C50    N92       1.35238      .   S
    C50    N91       1.35393  1_455   S
    C35    C37       1.38532      .   S
    C41    C43       1.38530      .   S
    N92    N89       1.32369      .   S
    N91    N90       1.32791      .   S
    C40    H4        1.09161      .   S
    C40    N87       1.35003      .   S
    C34    H0        1.09166      .   S
    C34    N82       1.35005      .   S
    C37    H3        1.08914      .   S
    C37    N82       1.35013      .   S
    C43    H7        1.08913      .   S
    C43    N87       1.35010      .   S
    N89    N90       1.34413  1_455   S
