# CIF file generated by openbabel 2.4.90, see http://openbabel.sf.net
data_I
_chemical_name_common ''
_cell_length_a 12.124
_cell_length_b 15.264
_cell_length_c 15.916
_cell_angle_alpha 89.962
_cell_angle_beta 89.998
_cell_angle_gamma 89.986
_space_group_name_H-M_alt 'P 1'
_space_group_name_Hall 'P 1'
loop_
    _symmetry_equiv_pos_as_xyz
    x,y,z
loop_
    _atom_site_label
    _atom_site_type_symbol
    _atom_site_fract_x
    _atom_site_fract_y
    _atom_site_fract_z
    _atom_site_occupancy
    Lv0     Lv   0.62277   0.79460   0.77232   1.000
    Lv1     Lv   0.37721   0.20542   0.22769   1.000
    Lv2     Lv   0.12282   0.70534   0.27233   1.000
    Lv3     Lv   0.12276   0.70546   0.72765   1.000
    Lv4     Lv   0.37715   0.20537   0.77231   1.000
    Lv5     Lv   0.62280   0.79456   0.22766   1.000
    Lv6     Lv   0.82398   0.26664   0.65983   1.000
    Lv7     Lv   0.82401   0.26660   0.34024   1.000
