# CIF file generated by openbabel 2.4.90, see http://openbabel.sf.net
data_I
_chemical_name_common ''
_cell_length_a 12.124
_cell_length_b 15.264
_cell_length_c 15.916
_cell_angle_alpha 89.962
_cell_angle_beta 89.998
_cell_angle_gamma 89.986
_space_group_name_H-M_alt 'P 1'
_space_group_name_Hall 'P 1'
loop_
    _symmetry_equiv_pos_as_xyz
    x,y,z
loop_
    _atom_site_label
    _atom_site_type_symbol
    _atom_site_fract_x
    _atom_site_fract_y
    _atom_site_fract_z
    _atom_site_occupancy
    Zr0     Zr   0.33299   0.81505   0.49993   1.000
    Zr1     Zr   0.66696   0.18496   0.50008   1.000
    Zr2     Zr   0.16694   0.31503   0.99996   1.000
    Zr3     Zr   0.83302   0.68496   0.30000   1.000
    Zr4     Zr   0.49999   0.99998   0.00000   1.000
    Zr5     Zr   1.00000   0.50000   0.99999   1.000
    Zr6     Zr   0.94202   0.32795   0.80572   1.000
    Zr7     Zr   0.94204   0.32792   0.19427   1.000
    Zr8     Zr   0.98727   0.40615   0.90947   1.000
    Zr9     Zr   0.04725   0.33210   0.91137   1.000
    Zr10    Zr   0.02034   0.28139   0.84679   1.000
    Zr11    Zr   0.92064   0.40541   0.84360   1.000
    Zr12    Zr   0.98733   0.40613   0.09045   1.000
    Zr13    Zr   0.04719   0.33203   0.08856   1.000
    Zr14    Zr   0.02026   0.28131   0.15319   1.000
    Zr15    Zr   0.92075   0.40542   0.15636   1.000
    Zr16    Zr   0.27553   0.96590   0.49988   1.000
    Zr17    Zr   0.72444   0.03411   0.50011   1.000
    Zr18    Zr   0.22438   0.46586   0.99990   1.000
    Zr19    Zr   0.77561   0.53412   0.00000   1.000
    O20     O    0.01726   0.36908   0.08951   1.000
    O21     O    0.03373   0.30667   0.12087   1.000
    O22     O    0.10707   0.32353   0.04426   1.000
    O23     O    0.95404   0.40577   0.12340   1.000
    O24     O    0.99366   0.45307   0.04522   1.000
    O25     O    0.98115   0.30461   0.17373   1.000
    O26     O    0.93140   0.36667   0.17531   1.000
    O27     O    0.30426   0.89048   0.49991   1.000
    O28     O    0.69570   0.10953   0.50010   1.000
    O29     O    0.93133   0.36668   0.82466   1.000
    O30     O    0.98118   0.30467   0.82626   1.000
    O31     O    0.95395   0.40578   0.87654   1.000
    O32     O    0.03379   0.30675   0.87908   1.000
    O33     O    0.01726   0.36913   0.91042   1.000
    O34     O    0.99363   0.45308   0.95473   1.000
    O35     O    0.10709   0.32357   0.95567   1.000
    O36     O    0.19566   0.39045   0.99993   1.000
    O37     O    0.88780   0.51706   1.00000   1.000
    N38     N    0.62277   0.79460   0.77232   1.000
    O39     O    0.50782   0.80907   0.65827   1.000
    N40     N    0.37721   0.20542   0.22769   1.000
    O41     O    0.29680   0.24728   0.13679   1.000
    O42     O    0.49216   0.19093   0.34173   1.000
    N43     N    0.12282   0.70534   0.27233   1.000
    O44     O    0.06459   0.62614   0.15879   1.000
    O45     O    0.20319   0.74722   0.36319   1.000
    N46     N    0.12276   0.70546   0.72765   1.000
    O47     O    0.06453   0.62620   0.84121   1.000
    O48     O    0.20316   0.74732   0.63676   1.000
    N49     N    0.37715   0.20537   0.77231   1.000
    O50     O    0.49212   0.19090   0.65834   1.000
    O51     O    0.29676   0.24723   0.86319   1.000
    N52     N    0.62280   0.79456   0.22766   1.000
    O53     O    0.50781   0.80907   0.34165   1.000
    N54     N    0.82398   0.26664   0.65983   1.000
    O55     O    0.77017   0.23877   0.60290   1.000
    O56     O    0.86860   0.28968   0.71408   1.000
    N57     N    0.82401   0.26660   0.34024   1.000
    O58     O    0.77020   0.23874   0.39720   1.000
    O59     O    0.86862   0.28964   0.28596   1.000
loop_
    _geom_bond_atom_site_label_1
    _geom_bond_atom_site_label_2
    _geom_bond_distance
    _geom_bond_site_symmetry_2
    _ccdc_geom_bond_type
    Zr13   O20       0.67208      .   S
    Zr12   O20       0.67208  1_655   S
    Zr13   O21       0.66392      .   S
    Zr14   O21       0.66392      .   S
    Zr13   O22       1.02029      .   S
    Zr2    O22       1.02029  1_556   S
    Zr12   O23       0.66186      .   S
    Zr15   O23       0.66186      .   S
    Zr12   O24       1.01818      .   S
    Zr5    O24       1.01818  1_556   S
    Zr14   O25       0.67699  1_455   S
    Zr7    O25       0.67699      .   S
    Zr15   O26       0.67620      .   S
    Zr7    O26       0.67620      .   S
    Zr16   O27       1.20274      .   S
    Zr0    O27       1.20274      .   S
    Zr1    O28       1.20277      .   S
    Zr17   O28       1.20277      .   S
    Zr6    O29       0.67624      .   S
    Zr11   O29       0.67624      .   S
    Zr6    O30       0.67698      .   S
    Zr10   O30       0.67698  1_455   S
    Zr11   O31       0.66183      .   S
    Zr8    O31       0.66183      .   S
    Zr10   O32       0.66395      .   S
    Zr9    O32       0.66395      .   S
    Zr8    O33       0.67206  1_655   S
    Zr9    O33       0.67206      .   S
    Zr8    O34       1.01913      .   S
    Zr5    O34       1.01913      .   S
    Zr9    O35       1.01999      .   S
    Zr2    O35       1.01999      .   S
    Zr18   O36       1.20275      .   S
    Zr2    O36       1.20275      .   S
    Zr5    O37       1.38486      .   S
    Zr19   O37       1.38486  1_554   S
    N38    O39       2.29896      .   S
    Zr0    O39       3.29430      .   S
    N40    O41       1.85753      .   S
    Zr2    O41       2.87869  1_556   S
    N40    O42       2.29898      .   S
    Zr1    O42       3.29423      .   S
    N43    O44       2.28671      .   S
    Zr5    O44       3.27348  1_656   S
    N43    O45       1.85767      .   S
    Zr0    O45       2.87909      .   S
    N46    O47       2.28602      .   S
    Zr5    O47       3.27159  1_655   S
    N46    O48       1.85750      .   S
    Zr0    O48       2.87871      .   S
    N49    O50       2.29846      .   S
    Zr1    O50       3.29333      .   S
    N49    O51       1.85770      .   S
    Zr2    O51       2.87898      .   S
    N52    O53       2.29872      .   S
    Zr0    O53       3.29351      .   S
    N54    O55       1.19504      .   S
    Zr1    O55       2.21831      .   S
    N54    O56       1.07823      .   S
    Zr6    O56       1.80622      .   S
    N57    O58       1.19496      .   S
    Zr1    O58       2.21818      .   S
    N57    O59       1.07816      .   S
    Zr7    O59       1.80614      .   S
