# CIF file generated by openbabel 2.4.90, see http://openbabel.sf.net
data_I
_chemical_name_common ''
_cell_length_a 8.75
_cell_length_b 12.597
_cell_length_c 12.598
_cell_angle_alpha 114.647
_cell_angle_beta 103.32
_cell_angle_gamma 103.37
_space_group_name_H-M_alt 'P 1'
_space_group_name_Hall 'P 1'
loop_
    _symmetry_equiv_pos_as_xyz
    x,y,z
loop_
    _atom_site_label
    _atom_site_type_symbol
    _atom_site_fract_x
    _atom_site_fract_y
    _atom_site_fract_z
    _atom_site_occupancy
    Lv0     Lv   0.10896   0.92891   0.66334   1.000
    Lv1     Lv   0.18053   0.73433   0.06980   1.000
    Lv2     Lv   0.81949   0.26568   0.93017   1.000
    Lv3     Lv   0.55303   0.66333   0.73361   1.000
    Lv4     Lv   0.89106   0.07109   0.33664   1.000
    Lv5     Lv   0.44699   0.33667   0.26637   1.000
