# CIF file generated by openbabel 2.4.90, see http://openbabel.sf.net
data_I
_chemical_name_common ''
_cell_length_a 8.75
_cell_length_b 12.597
_cell_length_c 12.598
_cell_angle_alpha 114.647
_cell_angle_beta 103.32
_cell_angle_gamma 103.37
_space_group_name_H-M_alt 'P 1'
_space_group_name_Hall 'P 1'
loop_
    _symmetry_equiv_pos_as_xyz
    x,y,z
loop_
    _atom_site_label
    _atom_site_type_symbol
    _atom_site_fract_x
    _atom_site_fract_y
    _atom_site_fract_z
    _atom_site_occupancy
    Ca0     Ca   0.58699   0.19684   0.57411   1.000
    Ca1     Ca   0.38929   0.37600   0.80319   1.000
    Ca2     Ca   0.98713   0.57397   0.37649   1.000
    Ca3     Ca   0.41302   0.80317   0.42586   1.000
    Ca4     Ca   0.61072   0.62400   0.19678   1.000
    Ca5     Ca   0.01289   0.42603   0.62348   1.000
    C6      C    0.97795   0.25442   0.77558   1.000
    C7      C    0.67831   0.39467   0.06986   1.000
    C8      C    0.72231   0.51965   0.74450   1.000
    C9      C    0.28301   0.67490   0.60544   1.000
    C10     C    0.20335   0.22484   0.48043   1.000
    C11     C    0.60914   0.93113   0.32474   1.000
    C12     C    0.02206   0.74557   0.22438   1.000
    C13     C    0.32170   0.60533   0.93011   1.000
    C14     C    0.27770   0.48035   0.25547   1.000
    C15     C    0.71701   0.32510   0.39453   1.000
    C16     C    0.79667   0.77517   0.51954   1.000
    C17     C    0.39088   0.06888   0.67523   1.000
    O18     O    0.89219   0.26736   0.68672   1.000
    O19     O    0.13478   0.27697   0.80851   1.000
    O20     O    0.55676   0.40889   0.00591   1.000
    O21     O    0.75151   0.47022   0.18834   1.000
    O22     O    0.62361   0.41811   0.73195   1.000
    O23     O    0.85649   0.52981   0.72163   1.000
    O24     O    0.14754   0.59661   0.59136   1.000
    O25     O    0.28042   0.71880   0.53022   1.000
    O26     O    0.20595   0.31346   0.58184   1.000
    O27     O    0.32710   0.19145   0.47033   1.000
    O28     O    0.55276   0.99509   0.40382   1.000
    O29     O    0.56130   0.81208   0.27988   1.000
    O30     O    0.10782   0.73264   0.31325   1.000
    O31     O    0.86523   0.72303   0.19146   1.000
    O32     O    0.44325   0.59111   0.99406   1.000
    O33     O    0.24850   0.52978   0.81163   1.000
    O34     O    0.37640   0.58190   0.26802   1.000
    O35     O    0.14352   0.47019   0.27834   1.000
    O36     O    0.85247   0.40339   0.40861   1.000
    O37     O    0.71960   0.28120   0.46975   1.000
    O38     O    0.79406   0.68654   0.41812   1.000
    O39     O    0.67291   0.80855   0.52964   1.000
    O40     O    0.44726   0.00491   0.59615   1.000
    O41     O    0.43871   0.18792   0.72010   1.000
loop_
    _geom_bond_atom_site_label_1
    _geom_bond_atom_site_label_2
    _geom_bond_distance
    _geom_bond_site_symmetry_2
    _ccdc_geom_bond_type
    O20    C7        1.27511      .   S
    C7     O21       1.27934      .   S
    O21    Ca2       2.34417      .   S
    O31    Ca4       2.31815      .   S
    O31    C12       1.26296  1_655   S
    Ca4    O29       2.34736      .   S
    C12    O30       1.29017      .   S
    C14    O34       1.29024      .   S
    C14    O35       1.26285      .   S
    O35    Ca2       2.31729  1_455   S
    O29    C11       1.27955      .   S
    C11    O28       1.27509      .   S
    C15    O36       1.27500      .   S
    C15    O37       1.27943      .   S
    O38    C16       1.29018      .   S
    Ca3    O39       2.31728      .   S
    Ca3    O25       2.34575      .   S
    O37    Ca0       2.34575      .   S
    O27    C10       1.26295      .   S
    O27    Ca0       2.31728      .   S
    C10    O26       1.29017      .   S
    C16    O39       1.26296      .   S
    O25    C9        1.27943      .   S
    O24    C9        1.27501      .   S
    O40    C17       1.27508      .   S
    Ca5    O23       2.31731  1_455   S
    Ca5    O33       2.34415      .   S
    C17    O41       1.27955      .   S
    O18    C6        1.29017      .   S
    O41    Ca1       2.34737      .   S
    O23    C8        1.26286      .   S
    O22    C8        1.29022      .   S
    C6     O19       1.26296  1_655   S
    Ca1    O19       2.31814      .   S
    O33    C13       1.27933      .   S
    C13    O32       1.27511      .   S
    O18    Ca5       2.54649  1_655   S
    O18    Ca0       2.45755      .   S
    O20    Ca1       2.44003  1_554   S
    O20    Ca4       2.60736      .   S
    O21    Ca4       2.50477      .   S
    O22    Ca0       2.54887      .   S
    O22    Ca1       2.45610      .   S
    O24    Ca5       2.43794      .   S
    O24    Ca2       2.60743  1_455   S
    O25    Ca2       2.50253  1_455   S
    O26    Ca5       2.45665      .   S
    O26    Ca1       2.54794      .   S
    O28    Ca0       2.44035  1_565   S
    O28    Ca3       2.60120      .   S
    O29    Ca3       2.50653      .   S
    O30    Ca2       2.54651  1_455   S
    O30    Ca3       2.45753      .   S
    O32    Ca1       2.60733      .   S
    O32    Ca4       2.44003  1_556   S
    O33    Ca1       2.50476      .   S
    O34    Ca3       2.54886      .   S
    O34    Ca4       2.45607      .   S
    O36    Ca5       2.60746  1_655   S
    O36    Ca2       2.43794      .   S
    O37    Ca5       2.50257  1_655   S
    O38    Ca2       2.45668      .   S
    O38    Ca4       2.54790      .   S
    O40    Ca0       2.60123      .   S
    O40    Ca3       2.44036  1_545   S
    O41    Ca0       2.50652      .   S
