# CIF file generated by openbabel 2.4.90, see http://openbabel.sf.net
data_I
_chemical_name_common ''
_cell_length_a 8.75
_cell_length_b 12.597
_cell_length_c 12.598
_cell_angle_alpha 114.647
_cell_angle_beta 103.32
_cell_angle_gamma 103.37
_space_group_name_H-M_alt 'P 1'
_space_group_name_Hall 'P 1'
loop_
    _symmetry_equiv_pos_as_xyz
    x,y,z
loop_
    _atom_site_label
    _atom_site_type_symbol
    _atom_site_fract_x
    _atom_site_fract_y
    _atom_site_fract_z
    _atom_site_occupancy
    C0      C    0.97795   0.25442   0.77558   1.000
    C1      C    0.67831   0.39467   0.06986   1.000
    C2      C    0.72231   0.51965   0.74450   1.000
    C3      C    0.28301   0.67490   0.60544   1.000
    C4      C    0.20335   0.22484   0.48043   1.000
    C5      C    0.60914   0.93113   0.32474   1.000
    C6      C    0.02206   0.74557   0.22438   1.000
    C7      C    0.32170   0.60533   0.93011   1.000
    C8      C    0.27770   0.48035   0.25547   1.000
    C9      C    0.71701   0.32510   0.39453   1.000
    C10     C    0.79667   0.77517   0.51954   1.000
    C11     C    0.39088   0.06888   0.67523   1.000
