# CIF file generated by openbabel 2.4.90, see http://openbabel.sf.net
data_I
_chemical_name_common ''
_cell_length_a 8.75
_cell_length_b 12.597
_cell_length_c 12.598
_cell_angle_alpha 114.647
_cell_angle_beta 103.32
_cell_angle_gamma 103.37
_space_group_name_H-M_alt 'P 1'
_space_group_name_Hall 'P 1'
loop_
    _symmetry_equiv_pos_as_xyz
    x,y,z
loop_
    _atom_site_label
    _atom_site_type_symbol
    _atom_site_fract_x
    _atom_site_fract_y
    _atom_site_fract_z
    _atom_site_occupancy
    Zr0     Zr   0.01289   0.42603   0.62348   1.000
    Zr1     Zr   0.58699   0.19684   0.57411   1.000
    Zr2     Zr   0.38929   0.37600   0.80319   1.000
    Zr3     Zr   0.98713   0.57397   0.37649   1.000
    Zr4     Zr   0.41302   0.80317   0.42586   1.000
    Zr5     Zr   0.61072   0.62400   0.19678   1.000
    Zr6     Zr   0.97795   0.25442   0.77558   1.000
    Zr7     Zr   0.67831   0.39467   0.06986   1.000
    Zr8     Zr   0.72231   0.51965   0.74450   1.000
    Zr9     Zr   0.28301   0.67490   0.60544   1.000
    Zr10    Zr   0.20335   0.22484   0.48043   1.000
    Zr11    Zr   0.60914   0.93113   0.32474   1.000
    Zr12    Zr   0.02206   0.74557   0.22438   1.000
    Zr13    Zr   0.32170   0.60533   0.93011   1.000
    Zr14    Zr   0.27770   0.48035   0.25547   1.000
    Zr15    Zr   0.71701   0.32510   0.39453   1.000
    Zr16    Zr   0.79667   0.77517   0.51954   1.000
    Zr17    Zr   0.39088   0.06888   0.67523   1.000
    Zr18    Zr   0.89219   0.26736   0.68672   1.000
    Zr19    Zr   0.13478   0.27697   0.80851   1.000
    Zr20    Zr   0.55676   0.40889   0.00591   1.000
    Zr21    Zr   0.75151   0.47022   0.18834   1.000
    Zr22    Zr   0.62361   0.41811   0.73195   1.000
    Zr23    Zr   0.85649   0.52981   0.72163   1.000
    Zr24    Zr   0.14754   0.59661   0.59136   1.000
    Zr25    Zr   0.28042   0.71880   0.53022   1.000
    Zr26    Zr   0.20595   0.31346   0.58184   1.000
    Zr27    Zr   0.32710   0.19145   0.47033   1.000
    Zr28    Zr   0.55276   0.99509   0.40382   1.000
    Zr29    Zr   0.56130   0.81208   0.27988   1.000
    Zr30    Zr   0.10782   0.73264   0.31325   1.000
    Zr31    Zr   0.86523   0.72303   0.19146   1.000
    Zr32    Zr   0.44325   0.59111   0.99406   1.000
    Zr33    Zr   0.24850   0.52978   0.81163   1.000
    Zr34    Zr   0.37640   0.58190   0.26802   1.000
    Zr35    Zr   0.14352   0.47019   0.27834   1.000
    Zr36    Zr   0.85247   0.40339   0.40861   1.000
    Zr37    Zr   0.71960   0.28120   0.46975   1.000
    Zr38    Zr   0.79406   0.68654   0.41812   1.000
    Zr39    Zr   0.67291   0.80855   0.52964   1.000
    Zr40    Zr   0.44726   0.00491   0.59615   1.000
    Zr41    Zr   0.43871   0.18792   0.72010   1.000
    O42     O    0.61754   0.40178   0.03789   1.000
    O43     O    0.71491   0.43244   0.12910   1.000
    O44     O    0.86932   0.52210   0.28242   1.000
    O45     O    0.73798   0.67351   0.19412   1.000
    O46     O    0.94365   0.73430   0.20792   1.000
    O47     O    0.58601   0.71804   0.23833   1.000
    O48     O    0.06494   0.73911   0.26882   1.000
    O49     O    0.32705   0.53112   0.26175   1.000
    O50     O    0.21061   0.47527   0.26690   1.000
    O51     O    0.06532   0.52208   0.32742   1.000
    O52     O    0.58522   0.87160   0.30231   1.000
    O53     O    0.58095   0.96311   0.36428   1.000
    O54     O    0.78474   0.36424   0.40157   1.000
    O55     O    0.71830   0.30315   0.43214   1.000
    O56     O    0.79536   0.73086   0.46883   1.000
    O57     O    0.54297   0.80586   0.47775   1.000
    O58     O    0.34672   0.76098   0.47804   1.000
    O59     O    0.65329   0.23902   0.52193   1.000
    O60     O    0.26523   0.20814   0.47538   1.000
    O61     O    0.45704   0.19414   0.52222   1.000
    O62     O    0.20465   0.26915   0.53114   1.000
    O63     O    0.73479   0.79186   0.52459   1.000
    O64     O    0.28171   0.69685   0.56783   1.000
    O65     O    0.21527   0.63576   0.59840   1.000
    O66     O    0.41907   0.03690   0.63569   1.000
    O67     O    0.93469   0.47792   0.67256   1.000
    O68     O    0.13070   0.47791   0.71755   1.000
    O69     O    0.41480   0.12840   0.69766   1.000
    O70     O    0.93507   0.26089   0.73115   1.000
    O71     O    0.41400   0.28196   0.76164   1.000
    O72     O    0.78940   0.52473   0.73307   1.000
    O73     O    0.67296   0.46888   0.73823   1.000
    O74     O    0.05636   0.26570   0.79205   1.000
    O75     O    0.26204   0.32649   0.80585   1.000
    O76     O    0.28510   0.56756   0.87087   1.000
    O77     O    0.38247   0.59822   0.96209   1.000
    O78     O    0.95254   0.34670   0.65510   1.000
    O79     O    0.73959   0.23210   0.63041   1.000
    O80     O    0.47303   0.39245   0.90455   1.000
    O81     O    0.58374   0.51644   0.10135   1.000
    O82     O    0.68112   0.54711   0.19256   1.000
    O83     O    0.60530   0.30747   0.65303   1.000
    O84     O    0.50645   0.39706   0.76757   1.000
    O85     O    0.08022   0.51132   0.60742   1.000
    O86     O    0.06733   0.58529   0.48393   1.000
    O87     O    0.13377   0.64639   0.45336   1.000
    O88     O    0.10942   0.36975   0.60266   1.000
    O89     O    0.29762   0.34473   0.69252   1.000
    O90     O    0.56987   0.09596   0.48896   1.000
    O91     O    0.48289   0.89913   0.41484   1.000
    O92     O    0.48716   0.80762   0.35287   1.000
    O93     O    0.04747   0.65331   0.34487   1.000
    O94     O    0.26042   0.76790   0.36956   1.000
    O95     O    0.41627   0.48356   0.89863   1.000
    O96     O    0.52698   0.60755   0.09542   1.000
    O97     O    0.31889   0.45289   0.80741   1.000
    O98     O    0.39471   0.69253   0.34694   1.000
    O99     O    0.49356   0.60295   0.23240   1.000
    O100    O    0.93268   0.41471   0.51605   1.000
    O101    O    0.91980   0.48868   0.39255   1.000
    O102    O    0.86624   0.35362   0.54661   1.000
    O103    O    0.89059   0.63026   0.39731   1.000
    O104    O    0.70239   0.65527   0.30745   1.000
    O105    O    0.51712   0.10087   0.58513   1.000
    O106    O    0.43014   0.90404   0.51101   1.000
    O107    O    0.51285   0.19238   0.64710   1.000
    N108    N    0.10896   0.92891   0.66334   1.000
    O109    O    0.99439   0.87010   0.61960   1.000
    O110    O    0.21851   0.98263   0.67901   1.000
    N111    N    0.18053   0.73433   0.06980   1.000
    O112    O    0.12484   0.74986   0.12883   1.000
    O113    O    0.23614   0.69590   0.01609   1.000
    N114    N    0.81949   0.26568   0.93017   1.000
    O115    O    0.76388   0.30410   0.98388   1.000
    O116    O    0.87517   0.25015   0.87114   1.000
    N117    N    0.55303   0.66333   0.73361   1.000
    O118    O    0.62411   0.61966   0.74896   1.000
    O119    O    0.45905   0.67889   0.69548   1.000
    N120    N    0.89106   0.07109   0.33664   1.000
    O121    O    0.78151   0.01737   0.32097   1.000
    O122    O    0.00562   0.12991   0.38037   1.000
    N123    N    0.44699   0.33667   0.26637   1.000
    O124    O    0.54097   0.32111   0.30449   1.000
    O125    O    0.37590   0.38034   0.25101   1.000
loop_
    _geom_bond_atom_site_label_1
    _geom_bond_atom_site_label_2
    _geom_bond_distance
    _geom_bond_site_symmetry_2
    _ccdc_geom_bond_type
    Zr20   O42       0.63756      .   S
    Zr7    O42       0.63756      .   S
    Zr7    O43       0.63967      .   S
    Zr21   O43       0.63967      .   S
    Zr21   O44       1.17209      .   S
    Zr3    O44       1.17209      .   S
    Zr31   O45       1.15908      .   S
    Zr5    O45       1.15908      .   S
    Zr31   O46       0.63148      .   S
    Zr12   O46       0.63148  1_455   S
    Zr5    O47       1.17368      .   S
    Zr29   O47       1.17368      .   S
    Zr12   O48       0.64508      .   S
    Zr30   O48       0.64508      .   S
    Zr14   O49       0.64512      .   S
    Zr34   O49       0.64512      .   S
    Zr14   O50       0.63143      .   S
    Zr35   O50       0.63143      .   S
    Zr35   O51       1.15864      .   S
    Zr3    O51       1.15864  1_655   S
    Zr29   O52       0.63977      .   S
    Zr11   O52       0.63977      .   S
    Zr11   O53       0.63755      .   S
    Zr28   O53       0.63755      .   S
    Zr15   O54       0.63750      .   S
    Zr36   O54       0.63750      .   S
    Zr15   O55       0.63971      .   S
    Zr37   O55       0.63971      .   S
    Zr38   O56       0.64509      .   S
    Zr16   O56       0.64509      .   S
    Zr4    O57       1.15864      .   S
    Zr39   O57       1.15864      .   S
    Zr4    O58       1.17287      .   S
    Zr25   O58       1.17287      .   S
    Zr37   O59       1.17288      .   S
    Zr1    O59       1.17288      .   S
    Zr27   O60       0.63147      .   S
    Zr10   O60       0.63147      .   S
    Zr27   O61       1.15864      .   S
    Zr1    O61       1.15864      .   S
    Zr10   O62       0.64509      .   S
    Zr26   O62       0.64509      .   S
    Zr16   O63       0.63148      .   S
    Zr39   O63       0.63148      .   S
    Zr25   O64       0.63972      .   S
    Zr9    O64       0.63972      .   S
    Zr24   O65       0.63750      .   S
    Zr9    O65       0.63750      .   S
    Zr40   O66       0.63754      .   S
    Zr17   O66       0.63754      .   S
    Zr0    O67       1.15866  1_455   S
    Zr23   O67       1.15866      .   S
    Zr0    O68       1.17208      .   S
    Zr33   O68       1.17208      .   S
    Zr17   O69       0.63978      .   S
    Zr41   O69       0.63978      .   S
    Zr18   O70       0.64508      .   S
    Zr6    O70       0.64508      .   S
    Zr41   O71       1.17368      .   S
    Zr2    O71       1.17368      .   S
    Zr23   O72       0.63143      .   S
    Zr8    O72       0.63143      .   S
    Zr22   O73       0.64511      .   S
    Zr8    O73       0.64511      .   S
    Zr6    O74       0.63148  1_655   S
    Zr19   O74       0.63148      .   S
    Zr2    O75       1.15907      .   S
    Zr19   O75       1.15907      .   S
    Zr33   O76       0.63967      .   S
    Zr13   O76       0.63967      .   S
    Zr13   O77       0.63756      .   S
    Zr32   O77       0.63756      .   S
    Zr18   O78       1.27324      .   S
    Zr0    O78       1.27324  1_455   S
    Zr18   O79       1.22877      .   S
    Zr1    O79       1.22877      .   S
    Zr20   O80       1.22002  1_554   S
    Zr2    O80       1.22002      .   S
    Zr20   O81       1.30368      .   S
    Zr5    O81       1.30368      .   S
    Zr21   O82       1.25239      .   S
    Zr5    O82       1.25239      .   S
    Zr22   O83       1.27443      .   S
    Zr1    O83       1.27443      .   S
    Zr22   O84       1.22805      .   S
    Zr2    O84       1.22805      .   S
    Zr24   O85       1.21897      .   S
    Zr0    O85       1.21897      .   S
    Zr24   O86       1.30371      .   S
    Zr3    O86       1.30371  1_655   S
    Zr25   O87       1.25126      .   S
    Zr3    O87       1.25126  1_655   S
    Zr26   O88       1.22833      .   S
    Zr0    O88       1.22833      .   S
    Zr26   O89       1.27397      .   S
    Zr2    O89       1.27397      .   S
    Zr28   O90       1.22018  1_565   S
    Zr1    O90       1.22018      .   S
    Zr28   O91       1.30060      .   S
    Zr4    O91       1.30060      .   S
    Zr29   O92       1.25327      .   S
    Zr4    O92       1.25327      .   S
    Zr30   O93       1.27325      .   S
    Zr3    O93       1.27325  1_655   S
    Zr30   O94       1.22877      .   S
    Zr4    O94       1.22877      .   S
    Zr32   O95       1.30367      .   S
    Zr2    O95       1.30367      .   S
    Zr32   O96       1.22002  1_556   S
    Zr5    O96       1.22002      .   S
    Zr33   O97       1.25238      .   S
    Zr2    O97       1.25238      .   S
    Zr34   O98       1.27443      .   S
    Zr4    O98       1.27443      .   S
    Zr34   O99       1.22804      .   S
    Zr5    O99       1.22804      .   S
    Zr36   O100      1.30373      .   S
    Zr0    O100      1.30373  1_455   S
    Zr36   O101      1.21897      .   S
    Zr3    O101      1.21897      .   S
    Zr37   O102      1.25128      .   S
    Zr0    O102      1.25128  1_455   S
    Zr38   O103      1.22834      .   S
    Zr3    O103      1.22834      .   S
    Zr38   O104      1.27395      .   S
    Zr5    O104      1.27395      .   S
    Zr40   O105      1.30062      .   S
    Zr1    O105      1.30062      .   S
    Zr40   O106      1.22018  1_545   S
    Zr4    O106      1.22018      .   S
    Zr41   O107      1.25326      .   S
    Zr1    O107      1.25326      .   S
    N108   O109      0.95862  1_455   S
    Zr16   O109      1.67129      .   S
    N108   O110      0.95766      .   S
    Zr17   O110      1.66602  1_545   S
    N111   O112      0.95828      .   S
    Zr12   O112      1.67076      .   S
    N111   O113      0.95729      .   S
    Zr13   O113      1.66536  1_556   S
    N114   O115      0.95730      .   S
    Zr7    O115      1.66536  1_554   S
    N114   O116      0.95829      .   S
    Zr6    O116      1.67080      .   S
    N117   O118      0.95838      .   S
    Zr8    O118      1.67105      .   S
    N117   O119      0.95728      .   S
    Zr9    O119      1.66542      .   S
    N120   O121      0.95766      .   S
    Zr11   O121      1.66601  1_565   S
    N120   O122      0.95861  1_655   S
    Zr10   O122      1.67132      .   S
    N123   O124      0.95728      .   S
    Zr15   O124      1.66542      .   S
    N123   O125      0.95839      .   S
    Zr14   O125      1.67106      .   S
