# CIF file generated by openbabel 2.4.90, see http://openbabel.sf.net
data_I
_chemical_name_common ''
_cell_length_a 8.75
_cell_length_b 12.597
_cell_length_c 12.598
_cell_angle_alpha 114.647
_cell_angle_beta 103.32
_cell_angle_gamma 103.37
_space_group_name_H-M_alt 'P 1'
_space_group_name_Hall 'P 1'
loop_
    _symmetry_equiv_pos_as_xyz
    x,y,z
loop_
    _atom_site_label
    _atom_site_type_symbol
    _atom_site_fract_x
    _atom_site_fract_y
    _atom_site_fract_z
    _atom_site_occupancy
    Zr0     Zr   0.01289   0.42603   0.62348   1.000
    Zr1     Zr   0.58699   0.19684   0.57411   1.000
    Zr2     Zr   0.38929   0.37600   0.80319   1.000
    Zr3     Zr   0.98713   0.57397   0.37649   1.000
    Zr4     Zr   0.41302   0.80317   0.42586   1.000
    Zr5     Zr   0.61072   0.62400   0.19678   1.000
    N6      N    0.10896   0.92891   0.66334   1.000
    N7      N    0.18053   0.73433   0.06980   1.000
    N8      N    0.81949   0.26568   0.93017   1.000
    N9      N    0.55303   0.66333   0.73361   1.000
    N10     N    0.89106   0.07109   0.33664   1.000
    N11     N    0.44699   0.33667   0.26637   1.000
    C12     C    0.66220   0.42459   0.08804   1.000
    O13     O    0.56761   0.40852   0.99630   1.000
    O14     O    0.62297   0.47052   0.09469   1.000
    O15     O    0.76576   0.47334   0.18523   1.000
    O16     O    0.67166   0.48585   0.14030   1.000
    O17     O    0.71304   0.36435   0.03596   1.000
    C18     C    0.99837   0.73375   0.24303   1.000
    O19     O    0.86817   0.70363   0.21858   1.000
    O20     O    0.06161   0.74180   0.18593   1.000
    O21     O    0.02292   0.69353   0.29395   1.000
    O22     O    0.12940   0.75083   0.30630   1.000
    C23     C    0.00164   0.26625   0.75694   1.000
    O24     O    0.13184   0.29637   0.78139   1.000
    O25     O    0.97709   0.30647   0.70602   1.000
    O26     O    0.87062   0.24918   0.69368   1.000
    O27     O    0.93841   0.25820   0.81404   1.000
    C28     C    0.23699   0.66344   0.57567   1.000
    O29     O    0.34802   0.67116   0.63558   1.000
    O30     O    0.29185   0.71221   0.52686   1.000
    O31     O    0.18538   0.65491   0.51452   1.000
    O32     O    0.15216   0.62437   0.52980   1.000
    O33     O    0.15860   0.58738   0.59154   1.000
    C34     C    0.24547   0.24325   0.51087   1.000
    O35     O    0.35126   0.21870   0.51654   1.000
    O36     O    0.12554   0.18658   0.44562   1.000
    O37     O    0.17744   0.30650   0.55676   1.000
    O38     O    0.27154   0.29399   0.60169   1.000
    C39     C    0.57440   0.91277   0.33615   1.000
    O40     O    0.58021   0.81540   0.28724   1.000
    O41     O    0.53078   0.86020   0.34451   1.000
    O42     O    0.67795   0.96507   0.32856   1.000
    O43     O    0.57214   0.00436   0.41256   1.000
    O44     O    0.52864   0.90595   0.37549   1.000
    C45     C    0.42562   0.08724   0.66383   1.000
    O46     O    0.47137   0.09406   0.62448   1.000
    O47     O    0.42788   0.99564   0.58742   1.000
    O48     O    0.32206   0.03494   0.67142   1.000
    O49     O    0.41981   0.18460   0.71274   1.000
    O50     O    0.46923   0.13981   0.65547   1.000
    C51     C    0.75455   0.75676   0.48910   1.000
    O52     O    0.87447   0.81343   0.55435   1.000
    O53     O    0.64876   0.78131   0.48343   1.000
    O54     O    0.82257   0.69351   0.44321   1.000
    O55     O    0.72847   0.70601   0.39828   1.000
    C56     C    0.76303   0.33656   0.42430   1.000
    O57     O    0.65200   0.32884   0.36439   1.000
    O58     O    0.70816   0.28779   0.47311   1.000
    O59     O    0.81463   0.34509   0.48545   1.000
    O60     O    0.84785   0.37564   0.47017   1.000
    O61     O    0.84141   0.41262   0.40843   1.000
    C62     C    0.26587   0.51081   0.26728   1.000
    O63     O    0.32089   0.44558   0.25914   1.000
    O64     O    0.16560   0.51645   0.29735   1.000
    O65     O    0.33029   0.60167   0.30711   1.000
    O66     O    0.37972   0.55688   0.24984   1.000
    C67     C    0.73414   0.48919   0.73270   1.000
    O68     O    0.67912   0.55442   0.74083   1.000
    O69     O    0.66972   0.39833   0.69286   1.000
    O70     O    0.62029   0.44312   0.75013   1.000
    O71     O    0.83441   0.48355   0.70263   1.000
    C72     C    0.33781   0.57541   0.91193   1.000
    O73     O    0.23425   0.52666   0.81474   1.000
    O74     O    0.32835   0.51415   0.85967   1.000
    O75     O    0.28697   0.63565   0.96401   1.000
    O76     O    0.37704   0.52948   0.90528   1.000
    O77     O    0.43240   0.59148   0.00368   1.000
loop_
    _geom_bond_atom_site_label_1
    _geom_bond_atom_site_label_2
    _geom_bond_distance
    _geom_bond_site_symmetry_2
    _ccdc_geom_bond_type
    C12    O13       1.16119  1_554   S
    Zr2    O13       2.37589      .   S
    C12    O14       0.72400      .   S
    Zr5    O14       1.86789      .   S
    C12    O15       1.14091      .   S
    Zr3    O15       2.30890      .   S
    C12    O16       0.74659      .   S
    Zr5    O16       1.84126      .   S
    C12    O17       1.03905      .   S
    N8     O17       1.97852  1_556   S
    C18    O19       1.03807      .   S
    Zr5    O19       2.14395      .   S
    C18    O20       1.02580  1_655   S
    N7     O20       1.96564      .   S
    C18    O21       0.98604  1_655   S
    Zr3    O21       2.16462  1_655   S
    C18    O22       1.14794  1_655   S
    Zr4    O22       2.35692      .   S
    C23    O24       1.03807      .   S
    Zr2    O24       2.14394      .   S
    C23    O25       0.98604  1_455   S
    Zr0    O25       2.16462  1_455   S
    C23    O26       1.14794  1_455   S
    Zr1    O26       2.35693      .   S
    C23    O27       1.02580  1_455   S
    N8     O27       1.96565      .   S
    C28    O29       1.03924      .   S
    N9     O29       1.97876      .   S
    C28    O30       1.14056      .   S
    Zr4    O30       2.30900      .   S
    C28    O31       0.74651      .   S
    Zr3    O31       1.84003  1_655   S
    C28    O32       0.72340      .   S
    Zr3    O32       1.86727  1_655   S
    C28    O33       1.16080      .   S
    Zr0    O33       2.37454      .   S
    C34    O35       1.03825      .   S
    Zr1    O35       2.14390      .   S
    C34    O36       1.02620      .   S
    N10    O36       1.96643  1_655   S
    C34    O37       1.14763      .   S
    Zr0    O37       2.35616      .   S
    C34    O38       0.98596      .   S
    Zr2    O38       2.16518      .   S
    C39    O40       1.13992      .   S
    Zr5    O40       2.30861      .   S
    C39    O41       0.74507      .   S
    Zr4    O41       1.84025      .   S
    C39    O42       1.03952      .   S
    N10    O42       1.97948  1_545   S
    C39    O43       1.16248  1_565   S
    Zr1    O43       2.37788      .   S
    C39    O44       0.72418      .   S
    Zr4    O44       1.86485      .   S
    C45    O46       0.72417      .   S
    Zr1    O46       1.86487      .   S
    C45    O47       1.16247  1_545   S
    Zr4    O47       2.37789      .   S
    C45    O48       1.03953      .   S
    N6     O48       1.97949  1_565   S
    C45    O49       1.13992      .   S
    Zr2    O49       2.30861      .   S
    C45    O50       0.74508      .   S
    Zr1    O50       1.84026      .   S
    C51    O52       1.02620      .   S
    N6     O52       1.96643  1_455   S
    C51    O53       1.03825      .   S
    Zr4    O53       2.14390      .   S
    C51    O54       1.14764      .   S
    Zr3    O54       2.35619      .   S
    C51    O55       0.98595      .   S
    Zr5    O55       2.16514      .   S
    C56    O57       1.03924      .   S
    N11    O57       1.97875      .   S
    C56    O58       1.14056      .   S
    Zr1    O58       2.30900      .   S
    C56    O59       0.74652      .   S
    Zr0    O59       1.84006  1_455   S
    C56    O60       0.72341      .   S
    Zr0    O60       1.86730  1_455   S
    C56    O61       1.16080      .   S
    Zr3    O61       2.37454      .   S
    C62    O63       1.02613      .   S
    N11    O63       1.96613      .   S
    C62    O64       1.03823      .   S
    Zr3    O64       2.14390  1_655   S
    C62    O65       0.98581      .   S
    Zr4    O65       2.16539      .   S
    C62    O66       1.14766      .   S
    Zr5    O66       2.35599      .   S
    C67    O68       1.02613      .   S
    N9     O68       1.96613      .   S
    C67    O69       0.98580      .   S
    Zr1    O69       2.16539      .   S
    C67    O70       1.14766      .   S
    Zr2    O70       2.35601      .   S
    C67    O71       1.03824      .   S
    Zr0    O71       2.14392  1_455   S
    C72    O73       1.14090      .   S
    Zr0    O73       2.30888      .   S
    C72    O74       0.74659      .   S
    Zr2    O74       1.84125      .   S
    C72    O75       1.03905      .   S
    N7     O75       1.97852  1_554   S
    C72    O76       0.72400      .   S
    Zr2    O76       1.86787      .   S
    C72    O77       1.16119  1_556   S
    Zr5    O77       2.37589      .   S
