# CIF file generated by openbabel 2.4.90, see http://openbabel.sf.net
data_I
_chemical_name_common ''
_cell_length_a 14.42
_cell_length_b 16.433
_cell_length_c 18.991
_cell_angle_alpha 115.842
_cell_angle_beta 102.848
_cell_angle_gamma 89.993
_space_group_name_H-M_alt 'P 1'
_space_group_name_Hall 'P 1'
loop_
    _symmetry_equiv_pos_as_xyz
    x,y,z
loop_
    _atom_site_label
    _atom_site_type_symbol
    _atom_site_fract_x
    _atom_site_fract_y
    _atom_site_fract_z
    _atom_site_occupancy
    Zr0     Zr   0.74632   0.07355   0.63551   1.000
    Zr1     Zr   0.80038   0.14822   0.80849   1.000
    Zr2     Zr   0.24619   0.56121   0.63569   1.000
    Zr3     Zr   0.30035   0.66075   0.80850   1.000
    Zr4     Zr   0.75380   0.43875   0.36433   1.000
    Zr5     Zr   0.69964   0.33921   0.19152   1.000
    Zr6     Zr   0.25367   0.92641   0.36450   1.000
    Zr7     Zr   0.19961   0.85174   0.19153   1.000
    O8      O    0.77335   0.11088   0.72200   1.000
    O9      O    0.27327   0.61098   0.72210   1.000
    O10     O    0.72672   0.38898   0.27792   1.000
    O11     O    0.22664   0.88908   0.27802   1.000
    N12     N    0.50449   0.35017   0.74110   1.000
    O13     O    0.39720   0.43517   0.69730   1.000
    O14     O    0.42203   0.47912   0.77472   1.000
    O15     O    0.59796   0.23178   0.69696   1.000
    O16     O    0.62332   0.26740   0.77441   1.000
    N17     N    0.95179   0.72647   0.78173   1.000
    O18     O    0.86359   0.60544   0.60311   1.000
    O19     O    0.06347   0.78340   0.95690   1.000
    N20     N    0.49549   0.64978   0.25889   1.000
    O21     O    0.57796   0.52083   0.22528   1.000
    O22     O    0.60278   0.56478   0.30268   1.000
    O23     O    0.37666   0.73255   0.22559   1.000
    O24     O    0.40203   0.76818   0.30304   1.000
    N25     N    0.04647   0.87547   0.70278   1.000
    O26     O    0.12598   0.74460   0.66931   1.000
    O27     O    0.15251   0.78953   0.74659   1.000
    O28     O    0.95109   0.99187   0.74736   1.000
    O29     O    0.92538   0.95631   0.66990   1.000
    N30     N    0.54646   0.82668   0.70228   1.000
    O31     O    0.65269   0.95671   0.74615   1.000
    O32     O    0.45093   0.75552   0.74706   1.000
    O33     O    0.42545   0.71267   0.66965   1.000
    O34     O    0.62584   0.92397   0.66887   1.000
    N35     N    0.04818   0.27348   0.21791   1.000
    O36     O    0.13639   0.39451   0.39671   1.000
    O37     O    0.93652   0.21655   0.04293   1.000
    N38     N    0.95202   0.12448   0.29697   1.000
    O39     O    0.04815   0.00809   0.25252   1.000
    O40     O    0.84673   0.21042   0.25329   1.000
    O41     O    0.07387   0.04365   0.32996   1.000
    O42     O    0.87326   0.25535   0.32957   1.000
    N43     N    0.45135   0.05516   0.78115   1.000
    O44     O    0.56317   0.17311   0.95656   1.000
    O45     O    0.36322   0.99805   0.60286   1.000
    N46     N    0.54863   0.94447   0.21847   1.000
    O47     O    0.43681   0.82668   0.04326   1.000
    O48     O    0.63676   0.00175   0.39696   1.000
    N49     N    0.45354   0.17328   0.29773   1.000
    O50     O    0.37415   0.07599   0.33113   1.000
    O51     O    0.34730   0.04325   0.25386   1.000
    O52     O    0.54906   0.24444   0.25294   1.000
    O53     O    0.57454   0.28728   0.33037   1.000
    N54     N    0.00464   0.39089   0.74119   1.000
    O55     O    0.12346   0.50715   0.77448   1.000
    O56     O    0.09786   0.46499   0.69709   1.000
    O57     O    0.92207   0.29587   0.77479   1.000
    O58     O    0.89759   0.26160   0.69733   1.000
    N59     N    0.99534   0.60907   0.25881   1.000
    O60     O    0.10239   0.73836   0.30266   1.000
    O61     O    0.87653   0.49280   0.22553   1.000
    O62     O    0.90212   0.53497   0.30292   1.000
    O63     O    0.07792   0.70409   0.22522   1.000
loop_
    _geom_bond_atom_site_label_1
    _geom_bond_atom_site_label_2
    _geom_bond_distance
    _geom_bond_site_symmetry_2
    _ccdc_geom_bond_type
    Zr0    O8        1.43633      .   S
    Zr1    O8        1.43633      .   S
    Zr2    O9        1.43497      .   S
    Zr3    O9        1.43497      .   S
    Zr4    O10       1.43497      .   S
    Zr5    O10       1.43497      .   S
    Zr6    O11       1.43625      .   S
    Zr7    O11       1.43625      .   S
    N12    O13       2.34029      .   S
    Zr2    O13       3.37318      .   S
    N12    O14       2.33873      .   S
    Zr3    O14       3.35087      .   S
    N12    O15       2.32051      .   S
    Zr0    O15       3.34117      .   S
    N12    O16       2.33537      .   S
    Zr1    O16       3.33800      .   S
    N17    O18       3.04635      .   S
    Zr4    O18       4.06853      .   S
    N17    O19       3.07241  1_655   S
    Zr7    O19       4.08873  1_554   S
    N20    O21       2.33873      .   S
    Zr5    O21       3.35090      .   S
    N20    O22       2.34022      .   S
    Zr4    O22       3.37354      .   S
    N20    O23       2.33526      .   S
    Zr7    O23       3.33790      .   S
    N20    O24       2.32052      .   S
    Zr6    O24       3.34114      .   S
    N25    O26       2.33986      .   S
    Zr2    O26       3.36278      .   S
    N25    O27       2.34145      .   S
    Zr3    O27       3.38512      .   S
    N25    O28       2.31794  1_455   S
    Zr1    O28       3.34554  1_545   S
    N25    O29       2.33273  1_455   S
    Zr0    O29       3.33927  1_545   S
    N30    O31       2.34261      .   S
    Zr1    O31       3.38725  1_545   S
    N30    O32       2.31888      .   S
    Zr3    O32       3.34860      .   S
    N30    O33       2.33374      .   S
    Zr2    O33       3.33974      .   S
    N30    O34       2.34026      .   S
    Zr0    O34       3.36291  1_545   S
    N35    O36       3.04901      .   S
    Zr2    O36       4.07128      .   S
    N35    O37       3.06940  1_455   S
    Zr1    O37       4.08553  1_556   S
    N38    O39       2.32482  1_655   S
    Zr7    O39       3.35293  1_565   S
    N38    O40       2.33416      .   S
    Zr5    O40       3.37795      .   S
    N38    O41       2.34087  1_655   S
    Zr6    O41       3.34789  1_565   S
    N38    O42       2.33439      .   S
    Zr4    O42       3.35503      .   S
    N43    O44       3.07191      .   S
    Zr5    O44       4.08803  1_554   S
    N43    O45       3.04576  1_545   S
    Zr6    O45       4.06779      .   S
    N46    O47       3.06890      .   S
    Zr3    O47       4.08482  1_556   S
    N46    O48       3.04857  1_565   S
    Zr0    O48       4.07060      .   S
    N49    O50       2.34014      .   S
    Zr6    O50       3.36309  1_565   S
    N49    O51       2.34263      .   S
    Zr7    O51       3.38723  1_565   S
    N49    O52       2.31883      .   S
    Zr5    O52       3.34842      .   S
    N49    O53       2.33371      .   S
    Zr4    O53       3.33969      .   S
    N54    O55       2.33486      .   S
    Zr3    O55       3.33789      .   S
    N54    O56       2.31982      .   S
    Zr2    O56       3.33947      .   S
    N54    O57       2.33887  1_455   S
    Zr1    O57       3.35102      .   S
    N54    O58       2.34021  1_455   S
    Zr0    O58       3.37436      .   S
    N59    O60       2.34029  1_655   S
    Zr6    O60       3.37433      .   S
    N59    O61       2.33487      .   S
    Zr5    O61       3.33789      .   S
    N59    O62       2.31991      .   S
    Zr4    O62       3.33954      .   S
    N59    O63       2.33881  1_655   S
    Zr7    O63       3.35098      .   S
