# CIF file generated by openbabel 2.4.90, see http://openbabel.sf.net
data_I
_chemical_name_common ''
_cell_length_a 10.9615
_cell_length_b 12.758
_cell_length_c 20.066
_cell_angle_alpha 90.035
_cell_angle_beta 90.047
_cell_angle_gamma 90.126
_space_group_name_H-M_alt 'P 1'
_space_group_name_Hall 'P 1'
loop_
    _symmetry_equiv_pos_as_xyz
    x,y,z
loop_
    _atom_site_label
    _atom_site_type_symbol
    _atom_site_fract_x
    _atom_site_fract_y
    _atom_site_fract_z
    _atom_site_occupancy
    Ag0     Ag   0.85401   0.32885   0.96500   1.000
    Ag1     Ag   0.64528   0.17112   0.96504   1.000
    Ag2     Ag   0.35398   0.17133   0.53490   1.000
    Ag3     Ag   0.24953   0.75019   0.67512   1.000
    Ag4     Ag   0.74947   0.74989   0.82512   1.000
    Ag5     Ag   0.00038   0.18793   0.24979   1.000
    Ag6     Ag   0.50040   0.31194   0.25005   1.000
    Ag7     Ag   0.85433   0.67135   0.46489   1.000
    Ag8     Ag   0.14587   0.67122   0.03492   1.000
    Ag9     Ag   0.35454   0.82898   0.03498   1.000
    Ag10    Ag   0.64579   0.82861   0.46511   1.000
    Ag11    Ag   0.75018   0.24975   0.32488   1.000
    Ag12    Ag   0.25027   0.25019   0.17485   1.000
    Ag13    Ag   0.99961   0.81210   0.75014   1.000
    Ag14    Ag   0.49940   0.68810   0.74998   1.000
    Ag15    Ag   0.14545   0.32861   0.53507   1.000
loop_
    _geom_bond_atom_site_label_1
    _geom_bond_atom_site_label_2
    _geom_bond_distance
    _geom_bond_site_symmetry_2
    _ccdc_geom_bond_type
    Ag8    Ag9       3.04337      .   S
    Ag12   Ag5       3.22399      .   S
    Ag12   Ag6       3.22447      .   S
    Ag5    Ag11      3.22936  1_455   S
    Ag6    Ag11      3.22261      .   S
    Ag7    Ag10      3.04483      .   S
    Ag2    Ag15      3.04489      .   S
    Ag3    Ag14      3.22335      .   S
    Ag3    Ag13      3.22634  1_455   S
    Ag14   Ag4       3.22358      .   S
    Ag13   Ag4       3.22654      .   S
    Ag0    Ag1       3.04372      .   S
