# CIF file generated by openbabel 2.4.90, see http://openbabel.sf.net
data_I
_chemical_name_common ''
_cell_length_a 10.9615
_cell_length_b 12.758
_cell_length_c 20.066
_cell_angle_alpha 90.035
_cell_angle_beta 90.047
_cell_angle_gamma 90.126
_space_group_name_H-M_alt 'P 1'
_space_group_name_Hall 'P 1'
loop_
    _symmetry_equiv_pos_as_xyz
    x,y,z
loop_
    _atom_site_label
    _atom_site_type_symbol
    _atom_site_fract_x
    _atom_site_fract_y
    _atom_site_fract_z
    _atom_site_occupancy
    C0      C    0.14545   0.32861   0.53507   1.000
    C1      C    0.85401   0.32885   0.96500   1.000
    C2      C    0.64528   0.17112   0.96504   1.000
    C3      C    0.35398   0.17133   0.53490   1.000
    C4      C    0.24953   0.75019   0.67512   1.000
    C5      C    0.74947   0.74989   0.82512   1.000
    C6      C    0.00038   0.18793   0.24979   1.000
    C7      C    0.50040   0.31194   0.25005   1.000
    C8      C    0.85433   0.67135   0.46489   1.000
    C9      C    0.14587   0.67122   0.03492   1.000
    C10     C    0.35454   0.82898   0.03498   1.000
    C11     C    0.64579   0.82861   0.46511   1.000
    C12     C    0.75018   0.24975   0.32488   1.000
    C13     C    0.25027   0.25019   0.17485   1.000
    C14     C    0.99961   0.81210   0.75014   1.000
    C15     C    0.49940   0.68810   0.74998   1.000
    C16     C    0.18815   0.33619   0.69862   1.000
    C17     C    0.23496   0.52377   0.76353   1.000
    C18     C    0.13980   0.66192   0.53924   1.000
    C19     C    0.29587   0.62827   0.52779   1.000
    C20     C    0.17923   0.54256   0.49869   1.000
    C21     C    0.01080   0.01948   0.37277   1.000
    C22     C    0.06802   0.08052   0.50196   1.000
    C23     C    0.06771   0.38308   0.31713   1.000
    C24     C    0.05615   0.43052   0.39994   1.000
    C25     C    0.20042   0.39016   0.36862   1.000
    C26     C    0.81006   0.33602   0.80166   1.000
    C27     C    0.76306   0.52333   0.73677   1.000
    C28     C    0.85993   0.66216   0.96092   1.000
    C29     C    0.70380   0.62836   0.97257   1.000
    C30     C    0.82025   0.54284   0.00154   1.000
    C31     C    0.98929   0.01955   0.12648   1.000
    C32     C    0.93121   0.08088   0.99755   1.000
    C33     C    0.93436   0.38331   0.18266   1.000
    C34     C    0.94441   0.43073   0.09981   1.000
    C35     C    0.80072   0.38992   0.13191   1.000
    C36     C    0.68768   0.16352   0.80156   1.000
    C37     C    0.73487   0.97615   0.73675   1.000
    C38     C    0.63962   0.83814   0.96117   1.000
    C39     C    0.79604   0.87156   0.97237   1.000
    C40     C    0.68025   0.95748   0.00162   1.000
    C41     C    0.51091   0.48031   0.12690   1.000
    C42     C    0.56801   0.41905   0.99784   1.000
    C43     C    0.56739   0.11687   0.18290   1.000
    C44     C    0.55620   0.06927   0.10009   1.000
    C45     C    0.70032   0.11024   0.13171   1.000
    C46     C    0.31031   0.16433   0.69823   1.000
    C47     C    0.26362   0.97700   0.76328   1.000
    C48     C    0.35957   0.83778   0.53937   1.000
    C49     C    0.20362   0.87153   0.52745   1.000
    C50     C    0.32054   0.95699   0.49857   1.000
    C51     C    0.48933   0.48058   0.37313   1.000
    C52     C    0.43130   0.41950   0.50212   1.000
    C53     C    0.43460   0.11639   0.31747   1.000
    C54     C    0.44372   0.06939   0.40045   1.000
    C55     C    0.30046   0.10985   0.36775   1.000
    C56     C    0.81149   0.66374   0.30135   1.000
    C57     C    0.76467   0.47614   0.23646   1.000
    C58     C    0.85997   0.33814   0.46079   1.000
    C59     C    0.70383   0.37160   0.47221   1.000
    C60     C    0.82030   0.45747   0.50132   1.000
    C61     C    0.98925   0.98064   0.62715   1.000
    C62     C    0.93183   0.91944   0.49799   1.000
    C63     C    0.93234   0.61682   0.68279   1.000
    C64     C    0.94391   0.56942   0.59998   1.000
    C65     C    0.79962   0.60971   0.63131   1.000
    C66     C    0.18994   0.66409   0.19825   1.000
    C67     C    0.23674   0.47677   0.26316   1.000
    C68     C    0.13996   0.33781   0.03908   1.000
    C69     C    0.29602   0.37177   0.02732   1.000
    C70     C    0.17938   0.45715   0.00000   1.000
    C71     C    0.01085   0.98041   0.87343   1.000
    C72     C    0.06848   0.91917   0.00241   1.000
    C73     C    0.06568   0.61683   0.81725   1.000
    C74     C    0.05577   0.56938   0.90009   1.000
    C75     C    0.19939   0.61031   0.86796   1.000
    C76     C    0.31223   0.83658   0.19848   1.000
    C77     C    0.26496   0.02395   0.26327   1.000
    C78     C    0.36010   0.16184   0.03878   1.000
    C79     C    0.20362   0.12854   0.02768   1.000
    C80     C    0.31925   0.04252   0.00000   1.000
    C81     C    0.48877   0.51976   0.87311   1.000
    C82     C    0.43172   0.58106   0.00218   1.000
    C83     C    0.43268   0.88328   0.81715   1.000
    C84     C    0.44369   0.93082   0.89998   1.000
    C85     C    0.29963   0.88992   0.86825   1.000
    C86     C    0.68961   0.83558   0.30181   1.000
    C87     C    0.73628   0.02290   0.23674   1.000
    C88     C    0.64010   0.16231   0.46053   1.000
    C89     C    0.79594   0.12835   0.47264   1.000
    C90     C    0.67874   0.04306   0.50140   1.000
    C91     C    0.51052   0.51938   0.62693   1.000
    C92     C    0.56849   0.58043   0.49792   1.000
    C93     C    0.56540   0.88356   0.68257   1.000
    C94     C    0.55605   0.93058   0.59961   1.000
    C95     C    0.69941   0.89013   0.63219   1.000
    C96     C    0.20527   0.54013   0.60407   1.000
    C97     C    0.19887   0.41467   0.67880   1.000
    C98     C    0.22127   0.50784   0.71104   1.000
    C99     C    0.20480   0.59641   0.53908   1.000
    C100    C    0.07837   0.26399   0.39148   1.000
    C101    C    0.03769   0.09528   0.39223   1.000
    C102    C    0.06439   0.12585   0.45634   1.000
    C103    C    0.10199   0.37269   0.36806   1.000
    C104    C    0.79374   0.54014   0.89619   1.000
    C105    C    0.79957   0.41453   0.82147   1.000
    C106    C    0.77707   0.50755   0.78925   1.000
    C107    C    0.79469   0.59657   0.96116   1.000
    C108    C    0.92220   0.26414   0.10830   1.000
    C109    C    0.96231   0.09551   0.10722   1.000
    C110    C    0.93526   0.12614   0.04321   1.000
    C111    C    0.89913   0.37277   0.13191   1.000
    C112    C    0.70547   0.95979   0.89621   1.000
    C113    C    0.69861   0.08512   0.82142   1.000
    C114    C    0.72119   0.99205   0.78922   1.000
    C115    C    0.70511   0.90355   0.96121   1.000
    C116    C    0.57830   0.23589   0.10849   1.000
    C117    C    0.53780   0.40445   0.10754   1.000
    C118    C    0.56443   0.37382   0.04348   1.000
    C119    C    0.60189   0.12733   0.13204   1.000
    C120    C    0.29386   0.95994   0.60388   1.000
    C121    C    0.29979   0.08573   0.67848   1.000
    C122    C    0.27743   0.99270   0.71079   1.000
    C123    C    0.29465   0.90336   0.53896   1.000
    C124    C    0.42213   0.23589   0.39156   1.000
    C125    C    0.46242   0.40466   0.39248   1.000
    C126    C    0.43533   0.37411   0.45650   1.000
    C127    C    0.39893   0.12712   0.36806   1.000
    C128    C    0.79434   0.45983   0.39593   1.000
    C129    C    0.80075   0.58527   0.32119   1.000
    C130    C    0.77834   0.49209   0.28896   1.000
    C131    C    0.79485   0.40357   0.46092   1.000
    C132    C    0.92163   0.73593   0.60846   1.000
    C133    C    0.96224   0.90465   0.60771   1.000
    C134    C    0.93551   0.87409   0.54361   1.000
    C135    C    0.89804   0.62722   0.63187   1.000
    C136    C    0.20608   0.45993   0.10374   1.000
    C137    C    0.20039   0.58557   0.17844   1.000
    C138    C    0.22278   0.49254   0.21068   1.000
    C139    C    0.20510   0.40347   0.03878   1.000
    C140    C    0.07775   0.73598   0.89163   1.000
    C141    C    0.03754   0.90459   0.89273   1.000
    C142    C    0.06452   0.87393   0.95674   1.000
    C143    C    0.10096   0.62738   0.86799   1.000
    C144    C    0.29424   0.04027   0.10380   1.000
    C145    C    0.30123   0.91497   0.17861   1.000
    C146    C    0.27860   0.00803   0.21079   1.000
    C147    C    0.29453   0.09649   0.03879   1.000
    C148    C    0.42156   0.76423   0.89153   1.000
    C149    C    0.46195   0.59564   0.89248   1.000
    C150    C    0.43534   0.62629   0.95653   1.000
    C151    C    0.39805   0.87280   0.86799   1.000
    C152    C    0.70582   0.04002   0.39613   1.000
    C153    C    0.70004   0.91419   0.32154   1.000
    C154    C    0.72242   0.00722   0.28923   1.000
    C155    C    0.70488   0.09664   0.46103   1.000
    C156    C    0.57769   0.76407   0.60846   1.000
    C157    C    0.53743   0.59530   0.60757   1.000
    C158    C    0.56449   0.62583   0.54354   1.000
    C159    C    0.60094   0.87284   0.63195   1.000
    C160    C    0.22473   0.58685   0.66380   1.000
    C161    C    0.18879   0.43521   0.61116   1.000
    C162    C    0.08929   0.23248   0.45566   1.000
    C163    C    0.04661   0.18270   0.35143   1.000
    C164    C    0.77393   0.58665   0.83648   1.000
    C165    C    0.81012   0.43527   0.88908   1.000
    C166    C    0.91075   0.23273   0.04408   1.000
    C167    C    0.95402   0.18285   0.14816   1.000
    C168    C    0.72495   0.91313   0.83650   1.000
    C169    C    0.68869   0.06459   0.88906   1.000
    C170    C    0.58919   0.26726   0.04428   1.000
    C171    C    0.54667   0.31717   0.14844   1.000
    C172    C    0.27429   0.91347   0.66363   1.000
    C173    C    0.31017   0.06490   0.61089   1.000
    C174    C    0.41073   0.26744   0.45573   1.000
    C175    C    0.45402   0.31717   0.35163   1.000
    C176    C    0.77486   0.41310   0.33620   1.000
    C177    C    0.81082   0.56475   0.38883   1.000
    C178    C    0.91063   0.76746   0.54428   1.000
    C179    C    0.95335   0.81722   0.64851   1.000
    C180    C    0.22583   0.41342   0.16346   1.000
    C181    C    0.18984   0.56482   0.11083   1.000
    C182    C    0.08910   0.76735   0.95585   1.000
    C183    C    0.04596   0.81728   0.85176   1.000
    C184    C    0.27478   0.08694   0.16350   1.000
    C185    C    0.31111   0.93548   0.11096   1.000
    C186    C    0.41064   0.73285   0.95574   1.000
    C187    C    0.45312   0.68293   0.85157   1.000
    C188    C    0.72546   0.08647   0.33638   1.000
    C189    C    0.68957   0.93506   0.38913   1.000
    C190    C    0.58908   0.73250   0.54429   1.000
    C191    C    0.54585   0.68280   0.64840   1.000
    O192    O    0.30689   0.06950   0.01939   1.000
    O193    O    0.19224   0.43031   0.01939   1.000
    O194    O    0.80747   0.56970   0.98135   1.000
    O195    O    0.69268   0.93051   0.98141   1.000
    O196    O    0.43353   0.60368   0.97936   1.000
    O197    O    0.06650   0.89655   0.97958   1.000
    O198    O    0.25056   0.38762   0.03305   1.000
    O199    O    0.24907   0.11251   0.03323   1.000
    O200    O    0.25021   0.75010   0.03495   1.000
    O201    O    0.16786   0.61802   0.07288   1.000
    O202    O    0.11749   0.71929   0.99539   1.000
    O203    O    0.33282   0.88223   0.07297   1.000
    O204    O    0.38259   0.78092   0.99536   1.000
    O205    O    0.17253   0.37064   0.03893   1.000
    O206    O    0.20559   0.43170   0.07126   1.000
    O207    O    0.32731   0.12916   0.03879   1.000
    O208    O    0.29439   0.06838   0.07129   1.000
    O209    O    0.92301   0.17944   0.04365   1.000
    O210    O    0.94879   0.11082   0.07521   1.000
    O211    O    0.93324   0.10351   0.02038   1.000
    O212    O    0.57681   0.32054   0.04388   1.000
    O213    O    0.55112   0.38914   0.07551   1.000
    O214    O    0.56622   0.39643   0.02066   1.000
    O215    O    0.91648   0.24844   0.07619   1.000
    O216    O    0.88238   0.28079   0.00454   1.000
    O217    O    0.58375   0.25158   0.07639   1.000
    O218    O    0.61724   0.21919   0.00466   1.000
    O219    O    0.92177   0.40175   0.11586   1.000
    O220    O    0.57905   0.09830   0.11607   1.000
    O221    O    0.19796   0.51237   0.10729   1.000
    O222    O    0.21595   0.43667   0.13360   1.000
    O223    O    0.30268   0.98787   0.10738   1.000
    O224    O    0.28451   0.06360   0.13365   1.000
    O225    O    0.97580   0.05753   0.11685   1.000
    O226    O    0.95817   0.13918   0.12769   1.000
    O227    O    0.52436   0.44238   0.11722   1.000
    O228    O    0.54223   0.36081   0.12799   1.000
    O229    O    0.91066   0.31845   0.12010   1.000
    O230    O    0.93811   0.22349   0.12823   1.000
    O231    O    0.59010   0.18161   0.12026   1.000
    O232    O    0.56249   0.27653   0.12847   1.000
    O233    O    0.19511   0.57520   0.14464   1.000
    O234    O    0.30617   0.92522   0.14478   1.000
    O235    O    0.65111   0.11879   0.13187   1.000
    O236    O    0.84992   0.38135   0.13191   1.000
    O237    O    0.91674   0.37804   0.15729   1.000
    O238    O    0.58464   0.12210   0.15747   1.000
    O239    O    0.97720   0.18539   0.19898   1.000
    O240    O    0.52353   0.31456   0.19925   1.000
    O241    O    0.23805   0.33181   0.16915   1.000
    O242    O    0.22430   0.45298   0.18707   1.000
    O243    O    0.26252   0.16856   0.16918   1.000
    O244    O    0.27669   0.04749   0.18715   1.000
    O245    O    0.12533   0.21906   0.21232   1.000
    O246    O    0.37534   0.28107   0.21245   1.000
    O247    O    0.19517   0.62483   0.18835   1.000
    O248    O    0.21158   0.53906   0.19456   1.000
    O249    O    0.30673   0.87577   0.18854   1.000
    O250    O    0.28992   0.96150   0.19470   1.000
    O251    O    0.22976   0.48466   0.23692   1.000
    O252    O    0.27178   0.01599   0.23703   1.000
    O253    O    0.77151   0.48411   0.26271   1.000
    O254    O    0.72935   0.01506   0.26299   1.000
    O255    O    0.87528   0.21884   0.28734   1.000
    O256    O    0.02350   0.18531   0.30061   1.000
    O257    O    0.62529   0.28085   0.28746   1.000
    O258    O    0.47721   0.31456   0.30084   1.000
    O259    O    0.78955   0.53868   0.30507   1.000
    O260    O    0.77660   0.45259   0.31258   1.000
    O261    O    0.71123   0.96071   0.30539   1.000
    O262    O    0.72394   0.04684   0.31280   1.000
    O263    O    0.80612   0.62450   0.31127   1.000
    O264    O    0.69483   0.87489   0.31168   1.000
    O265    O    0.08485   0.37789   0.34259   1.000
    O266    O    0.41677   0.12175   0.34276   1.000
    O267    O    0.80579   0.57501   0.35501   1.000
    O268    O    0.69480   0.92463   0.35534   1.000
    O269    O    0.76252   0.33143   0.33054   1.000
    O270    O    0.73782   0.16811   0.33063   1.000
    O271    O    0.78460   0.43647   0.36607   1.000
    O272    O    0.71564   0.06324   0.36625   1.000
    O273    O    0.06249   0.22335   0.37145   1.000
    O274    O    0.04215   0.13899   0.37183   1.000
    O275    O    0.43807   0.27653   0.37160   1.000
    O276    O    0.45822   0.36092   0.37206   1.000
    O277    O    0.34970   0.11849   0.36791   1.000
    O278    O    0.15120   0.38142   0.36834   1.000
    O279    O    0.09018   0.31834   0.37977   1.000
    O280    O    0.07907   0.40161   0.38400   1.000
    O281    O    0.41053   0.18151   0.37981   1.000
    O282    O    0.42133   0.09826   0.38425   1.000
    O283    O    0.02424   0.05738   0.38250   1.000
    O284    O    0.47588   0.44262   0.38280   1.000
    O285    O    0.80258   0.51229   0.39238   1.000
    O286    O    0.83257   0.61805   0.42686   1.000
    O287    O    0.69769   0.98754   0.39263   1.000
    O288    O    0.66768   0.88184   0.42712   1.000
    O289    O    0.08383   0.24824   0.42357   1.000
    O290    O    0.41643   0.25167   0.42365   1.000
    O291    O    0.05104   0.11057   0.42429   1.000
    O292    O    0.44888   0.38939   0.42449   1.000
    O293    O    0.79460   0.43170   0.42843   1.000
    O294    O    0.70535   0.06833   0.42858   1.000
    O295    O    0.07684   0.17917   0.45600   1.000
    O296    O    0.11737   0.28055   0.49537   1.000
    O297    O    0.42303   0.32078   0.45611   1.000
    O298    O    0.38235   0.21939   0.49532   1.000
    O299    O    0.06620   0.10319   0.47915   1.000
    O300    O    0.43331   0.39681   0.47931   1.000
    O301    O    0.67249   0.12947   0.46078   1.000
    O302    O    0.82741   0.37086   0.46086   1.000
    O303    O    0.74934   0.38759   0.46656   1.000
    O304    O    0.80758   0.43052   0.48112   1.000
    O305    O    0.75041   0.11249   0.46684   1.000
    O306    O    0.69181   0.06985   0.48122   1.000
    O307    O    0.75006   0.74998   0.46500   1.000
    O308    O    0.88248   0.71940   0.50459   1.000
    O309    O    0.61744   0.78056   0.50470   1.000
    O310    O    0.56649   0.60313   0.52073   1.000
    O311    O    0.93367   0.89677   0.52080   1.000
    O312    O    0.30760   0.93017   0.51876   1.000
    O313    O    0.19202   0.56948   0.51889   1.000
    O314    O    0.24913   0.88744   0.53320   1.000
    O315    O    0.25034   0.61234   0.53344   1.000
    O316    O    0.24971   0.24997   0.53499   1.000
    O317    O    0.33207   0.11811   0.57290   1.000
    O318    O    0.16712   0.38191   0.57311   1.000
    O319    O    0.32711   0.87057   0.53916   1.000
    O320    O    0.29426   0.93165   0.57142   1.000
    O321    O    0.17230   0.62917   0.53916   1.000
    O322    O    0.20504   0.56827   0.57158   1.000
    O323    O    0.57678   0.67917   0.54392   1.000
    O324    O    0.55096   0.61056   0.57555   1.000
    O325    O    0.92307   0.82078   0.54395   1.000
    O326    O    0.94887   0.88937   0.57566   1.000
    O327    O    0.91613   0.75169   0.57637   1.000
    O328    O    0.58339   0.74829   0.57638   1.000
    O329    O    0.57850   0.90171   0.61578   1.000
    O330    O    0.92098   0.59832   0.61592   1.000
    O331    O    0.30201   0.01242   0.60738   1.000
    O332    O    0.28408   0.93671   0.63375   1.000
    O333    O    0.19703   0.48767   0.60761   1.000
    O334    O    0.21500   0.56349   0.63394   1.000
    O335    O    0.52398   0.55734   0.61725   1.000
    O336    O    0.54164   0.63905   0.62798   1.000
    O337    O    0.97574   0.94265   0.61743   1.000
    O338    O    0.95780   0.86093   0.62811   1.000
    O339    O    0.58932   0.81846   0.62020   1.000
    O340    O    0.56177   0.72344   0.62843   1.000
    O341    O    0.90983   0.68157   0.62016   1.000
    O342    O    0.93749   0.77657   0.62848   1.000
    O343    O    0.30498   0.07531   0.64468   1.000
    O344    O    0.19383   0.42494   0.64498   1.000
    O345    O    0.84883   0.61846   0.63159   1.000
    O346    O    0.91519   0.62202   0.65733   1.000
    O347    O    0.65017   0.88149   0.63207   1.000
    O348    O    0.58317   0.87820   0.65726   1.000
    O349    O    0.52263   0.68545   0.69919   1.000
    O350    O    0.97648   0.81466   0.69932   1.000
    O351    O    0.26191   0.83183   0.66937   1.000
    O352    O    0.27586   0.95309   0.68721   1.000
    O353    O    0.23713   0.66852   0.66946   1.000
    O354    O    0.22300   0.54734   0.68742   1.000
    O355    O    0.37447   0.71914   0.71255   1.000
    O356    O    0.12457   0.78114   0.71263   1.000
    O357    O    0.30505   0.12503   0.68835   1.000
    O358    O    0.28861   0.03922   0.69464   1.000
    O359    O    0.19351   0.37543   0.68871   1.000
    O360    O    0.21007   0.46126   0.69492   1.000
    O361    O    0.27053   0.98485   0.73703   1.000
    O362    O    0.22812   0.51581   0.73729   1.000
    O363    O    0.72803   0.98410   0.76298   1.000
    O364    O    0.77007   0.51544   0.76301   1.000
    O365    O    0.62444   0.71899   0.78755   1.000
    O366    O    0.47626   0.68551   0.80077   1.000
    O367    O    0.87454   0.78099   0.78763   1.000
    O368    O    0.02279   0.81469   0.80095   1.000
    O369    O    0.70990   0.03859   0.80532   1.000
    O370    O    0.72307   0.95259   0.81286   1.000
    O371    O    0.78832   0.46104   0.80536   1.000
    O372    O    0.77550   0.54710   0.81286   1.000
    O373    O    0.69315   0.12432   0.81149   1.000
    O374    O    0.80482   0.37527   0.81156   1.000
    O375    O    0.41536   0.87804   0.84257   1.000
    O376    O    0.08332   0.62210   0.84262   1.000
    O377    O    0.69365   0.07486   0.85524   1.000
    O378    O    0.80484   0.42490   0.85527   1.000
    O379    O    0.76170   0.66827   0.83080   1.000
    O380    O    0.73721   0.83151   0.83081   1.000
    O381    O    0.78384   0.56340   0.86633   1.000
    O382    O    0.71521   0.93646   0.86635   1.000
    O383    O    0.43734   0.72358   0.87155   1.000
    O384    O    0.45753   0.63928   0.87203   1.000
    O385    O    0.06186   0.77663   0.87170   1.000
    O386    O    0.04175   0.86094   0.87225   1.000
    O387    O    0.15018   0.61885   0.86797   1.000
    O388    O    0.34884   0.88136   0.86812   1.000
    O389    O    0.40980   0.81851   0.87976   1.000
    O390    O    0.42087   0.90181   0.88398   1.000
    O391    O    0.08936   0.68168   0.87981   1.000
    O392    O    0.07837   0.59838   0.88404   1.000
    O393    O    0.47536   0.55770   0.88280   1.000
    O394    O    0.02420   0.94250   0.88308   1.000
    O395    O    0.69708   0.01219   0.89264   1.000
    O396    O    0.66698   0.11785   0.92705   1.000
    O397    O    0.80193   0.48770   0.89263   1.000
    O398    O    0.83206   0.38206   0.92704   1.000
    O399    O    0.41610   0.74854   0.92363   1.000
    O400    O    0.08343   0.75167   0.92374   1.000
    O401    O    0.44864   0.61096   0.92451   1.000
    O402    O    0.05103   0.88926   0.92473   1.000
    O403    O    0.79422   0.56835   0.92868   1.000
    O404    O    0.70529   0.93167   0.92871   1.000
    O405    O    0.42299   0.67957   0.95614   1.000
    O406    O    0.07681   0.82064   0.95629   1.000
    O407    O    0.82731   0.62936   0.96104   1.000
    O408    O    0.74925   0.61246   0.96687   1.000
    O409    O    0.67236   0.87085   0.96119   1.000
    O410    O    0.75057   0.88755   0.96679   1.000
    O411    O    0.74964   0.24999   0.96502   1.000
loop_
    _geom_bond_atom_site_label_1
    _geom_bond_atom_site_label_2
    _geom_bond_distance
    _geom_bond_site_symmetry_2
    _ccdc_geom_bond_type
    C80    O192      0.53709      .   S
    C147   O192      0.53709      .   S
    C70    O193      0.53736      .   S
    C139   O193      0.53736      .   S
    C30    O194      0.54903  1_554   S
    C107   O194      0.54903      .   S
    C40    O195      0.54903  1_554   S
    C115   O195      0.54903      .   S
    C82    O196      0.54177  1_554   S
    C150   O196      0.54177      .   S
    C72    O197      0.54177  1_554   S
    C142   O197      0.54177      .   S
    C69    O198      0.55040      .   S
    C139   O198      0.55040      .   S
    C79    O199      0.55037      .   S
    C147   O199      0.55037      .   S
    C9     O200      1.52169      .   S
    C10    O200      1.52169      .   S
    C9     O201      1.04872      .   S
    C181   O201      1.04872      .   S
    C9     O202      1.05038  1_554   S
    C182   O202      1.05038      .   S
    C10    O203      1.04869      .   S
    C185   O203      1.04869      .   S
    C10    O204      1.05033  1_554   S
    C186   O204      1.05033      .   S
    C139   O205      0.54976      .   S
    C68    O205      0.54976      .   S
    C139   O206      0.74449      .   S
    C136   O206      0.74449      .   S
    C78    O207      0.54979      .   S
    C147   O207      0.54979      .   S
    C147   O208      0.74449      .   S
    C144   O208      0.74449      .   S
    C110   O209      0.69344      .   S
    C166   O209      0.69344      .   S
    C110   O210      0.68754      .   S
    C109   O210      0.68754      .   S
    C110   O211      0.54176      .   S
    C32    O211      0.54176  1_556   S
    C118   O212      0.69346      .   S
    C170   O212      0.69346      .   S
    C118   O213      0.68752      .   S
    C117   O213      0.68752      .   S
    C118   O214      0.54176      .   S
    C42    O214      0.54176  1_556   S
    C166   O215      0.67736      .   S
    C108   O215      0.67736      .   S
    C166   O216      1.05038      .   S
    C1     O216      1.05038  1_556   S
    C170   O217      0.67738      .   S
    C116   O217      0.67738      .   S
    C170   O218      1.05038      .   S
    C2     O218      1.05038  1_556   S
    C34    O219      0.54945      .   S
    C111   O219      0.54945      .   S
    C44    O220      0.54946      .   S
    C119   O220      0.54946      .   S
    C136   O221      0.67891      .   S
    C181   O221      0.67891      .   S
    C136   O222      0.67744      .   S
    C180   O222      0.67744      .   S
    C144   O223      0.67887  1_545   S
    C185   O223      0.67887      .   S
    C144   O224      0.67741      .   S
    C184   O224      0.67741      .   S
    C109   O225      0.54257      .   S
    C31    O225      0.54257      .   S
    C109   O226      0.69363      .   S
    C167   O226      0.69363      .   S
    C117   O227      0.54207      .   S
    C41    O227      0.54207      .   S
    C117   O228      0.69365      .   S
    C171   O228      0.69365      .   S
    C108   O229      0.74335      .   S
    C111   O229      0.74335      .   S
    C108   O230      0.67810      .   S
    C167   O230      0.67810      .   S
    C116   O231      0.74336      .   S
    C119   O231      0.74336      .   S
    C116   O232      0.67810      .   S
    C171   O232      0.67810      .   S
    C181   O233      0.69342      .   S
    C137   O233      0.69342      .   S
    C185   O234      0.69343      .   S
    C145   O234      0.69343      .   S
    C45    O235      0.55058      .   S
    C119   O235      0.55058      .   S
    C35    O236      0.55058      .   S
    C111   O236      0.55058      .   S
    C111   O237      0.54842      .   S
    C33    O237      0.54842      .   S
    C119   O238      0.54843      .   S
    C43    O238      0.54843      .   S
    C167   O239      1.05113      .   S
    C6     O239      1.05113  1_455   S
    C171   O240      1.05117      .   S
    C7     O240      1.05117      .   S
    C180   O241      1.05639      .   S
    C13    O241      1.05639      .   S
    C180   O242      0.69227      .   S
    C138   O242      0.69227      .   S
    C184   O243      1.05639      .   S
    C13    O243      1.05639      .   S
    C184   O244      0.69226      .   S
    C146   O244      0.69226      .   S
    C13    O245      1.61199      .   S
    C6     O245      1.61199      .   S
    C13    O246      1.61224      .   S
    C7     O246      1.61224      .   S
    C137   O247      0.54188      .   S
    C66    O247      0.54188      .   S
    C137   O248      0.68727      .   S
    C138   O248      0.68727      .   S
    C145   O249      0.54188      .   S
    C76    O249      0.54188      .   S
    C145   O250      0.68721      .   S
    C146   O250      0.68721  1_545   S
    C138   O251      0.54147      .   S
    C67    O251      0.54147      .   S
    C146   O252      0.54143      .   S
    C77    O252      0.54143      .   S
    C57    O253      0.54145      .   S
    C130   O253      0.54145      .   S
    C87    O254      0.54147      .   S
    C154   O254      0.54147      .   S
    C6     O255      1.61468  1_455   S
    C12    O255      1.61468      .   S
    C6     O256      1.05110      .   S
    C163   O256      1.05110      .   S
    C7     O257      1.61130      .   S
    C12    O257      1.61130      .   S
    C7     O258      1.05118      .   S
    C175   O258      1.05118      .   S
    C130   O259      0.68726      .   S
    C129   O259      0.68726      .   S
    C130   O260      0.69227      .   S
    C176   O260      0.69227      .   S
    C154   O261      0.68722  1_545   S
    C153   O261      0.68722      .   S
    C154   O262      0.69227      .   S
    C188   O262      0.69227      .   S
    C56    O263      0.54188      .   S
    C129   O263      0.54188      .   S
    C86    O264      0.54188      .   S
    C153   O264      0.54188      .   S
    C23    O265      0.54841      .   S
    C103   O265      0.54841      .   S
    C53    O266      0.54842      .   S
    C127   O266      0.54842      .   S
    C129   O267      0.69344      .   S
    C177   O267      0.69344      .   S
    C153   O268      0.69342      .   S
    C189   O268      0.69342      .   S
    C12    O269      1.05649      .   S
    C176   O269      1.05649      .   S
    C12    O270      1.05648      .   S
    C188   O270      1.05648      .   S
    C176   O271      0.67742      .   S
    C128   O271      0.67742      .   S
    C188   O272      0.67744      .   S
    C152   O272      0.67744      .   S
    C163   O273      0.67813      .   S
    C100   O273      0.67813      .   S
    C163   O274      0.69364      .   S
    C101   O274      0.69364      .   S
    C175   O275      0.67811      .   S
    C124   O275      0.67811      .   S
    C175   O276      0.69362      .   S
    C125   O276      0.69362      .   S
    C55    O277      0.55059      .   S
    C127   O277      0.55059      .   S
    C103   O278      0.55059      .   S
    C25    O278      0.55059      .   S
    C103   O279      0.74338      .   S
    C100   O279      0.74338      .   S
    C103   O280      0.54946      .   S
    C24    O280      0.54946      .   S
    C127   O281      0.74332      .   S
    C124   O281      0.74332      .   S
    C127   O282      0.54943      .   S
    C54    O282      0.54943      .   S
    C21    O283      0.54149      .   S
    C101   O283      0.54149      .   S
    C51    O284      0.54210      .   S
    C125   O284      0.54210      .   S
    C177   O285      0.67892      .   S
    C128   O285      0.67892      .   S
    C177   O286      1.04882      .   S
    C8     O286      1.04882      .   S
    C189   O287      0.67885      .   S
    C152   O287      0.67885  1_545   S
    C189   O288      1.04881      .   S
    C11    O288      1.04881      .   S
    C100   O289      0.67737      .   S
    C162   O289      0.67737      .   S
    C124   O290      0.67734      .   S
    C174   O290      0.67734      .   S
    C101   O291      0.68752      .   S
    C102   O291      0.68752      .   S
    C125   O292      0.68756      .   S
    C126   O292      0.68756      .   S
    C128   O293      0.74448      .   S
    C131   O293      0.74448      .   S
    C152   O294      0.74448      .   S
    C155   O294      0.74448      .   S
    C162   O295      0.69347      .   S
    C102   O295      0.69347      .   S
    C162   O296      1.05056      .   S
    C0     O296      1.05056      .   S
    C174   O297      0.69345      .   S
    C126   O297      0.69345      .   S
    C174   O298      1.05062      .   S
    C3     O298      1.05062      .   S
    C102   O299      0.54196      .   S
    C22    O299      0.54196      .   S
    C126   O300      0.54196      .   S
    C52    O300      0.54196      .   S
    C88    O301      0.54974      .   S
    C155   O301      0.54974      .   S
    C58    O302      0.54977      .   S
    C131   O302      0.54977      .   S
    C131   O303      0.55041      .   S
    C59    O303      0.55041      .   S
    C131   O304      0.54903      .   S
    C60    O304      0.54903      .   S
    C155   O305      0.55042      .   S
    C89    O305      0.55042      .   S
    C155   O306      0.54904      .   S
    C90    O306      0.54904      .   S
    C8     O307      1.52241      .   S
    C11    O307      1.52241      .   S
    C8     O308      1.05059      .   S
    C178   O308      1.05059      .   S
    C11    O309      1.05062      .   S
    C190   O309      1.05062      .   S
    C92    O310      0.54196      .   S
    C158   O310      0.54196      .   S
    C62    O311      0.54197      .   S
    C134   O311      0.54197      .   S
    C50    O312      0.54904      .   S
    C123   O312      0.54904      .   S
    C20    O313      0.54903      .   S
    C99    O313      0.54903      .   S
    C49    O314      0.55040      .   S
    C123   O314      0.55040      .   S
    C19    O315      0.55041      .   S
    C99    O315      0.55041      .   S
    C3     O316      1.52245      .   S
    C0     O316      1.52245      .   S
    C3     O317      1.04882      .   S
    C173   O317      1.04882      .   S
    C0     O318      1.04879      .   S
    C161   O318      1.04879      .   S
    C123   O319      0.54975      .   S
    C48    O319      0.54975      .   S
    C123   O320      0.74448      .   S
    C120   O320      0.74448      .   S
    C99    O321      0.54976      .   S
    C18    O321      0.54976      .   S
    C99    O322      0.74449      .   S
    C96    O322      0.74449      .   S
    C158   O323      0.69343      .   S
    C190   O323      0.69343      .   S
    C158   O324      0.68755      .   S
    C157   O324      0.68755      .   S
    C134   O325      0.69347      .   S
    C178   O325      0.69347      .   S
    C134   O326      0.68751      .   S
    C133   O326      0.68751      .   S
    C178   O327      0.67737      .   S
    C132   O327      0.67737      .   S
    C190   O328      0.67735      .   S
    C156   O328      0.67735      .   S
    C94    O329      0.54945      .   S
    C159   O329      0.54945      .   S
    C64    O330      0.54947      .   S
    C135   O330      0.54947      .   S
    C120   O331      0.67886  1_565   S
    C173   O331      0.67886      .   S
    C120   O332      0.67744      .   S
    C172   O332      0.67744      .   S
    C96    O333      0.67893      .   S
    C161   O333      0.67893      .   S
    C96    O334      0.67742      .   S
    C160   O334      0.67742      .   S
    C157   O335      0.54210      .   S
    C91    O335      0.54210      .   S
    C157   O336      0.69361      .   S
    C191   O336      0.69361      .   S
    C133   O337      0.54263      .   S
    C61    O337      0.54263      .   S
    C133   O338      0.69365      .   S
    C179   O338      0.69365      .   S
    C156   O339      0.74334      .   S
    C159   O339      0.74334      .   S
    C156   O340      0.67811      .   S
    C191   O340      0.67811      .   S
    C132   O341      0.74338      .   S
    C135   O341      0.74338      .   S
    C132   O342      0.67812      .   S
    C179   O342      0.67812      .   S
    C173   O343      0.69342      .   S
    C121   O343      0.69342      .   S
    C161   O344      0.69343      .   S
    C97    O344      0.69343      .   S
    C65    O345      0.55059      .   S
    C135   O345      0.55059      .   S
    C135   O346      0.54841      .   S
    C63    O346      0.54841      .   S
    C159   O347      0.55059      .   S
    C95    O347      0.55059      .   S
    C159   O348      0.54842      .   S
    C93    O348      0.54842      .   S
    C191   O349      1.05115      .   S
    C15    O349      1.05115      .   S
    C179   O350      1.05102      .   S
    C14    O350      1.05102      .   S
    C172   O351      1.05652      .   S
    C4     O351      1.05652      .   S
    C172   O352      0.69228      .   S
    C122   O352      0.69228      .   S
    C160   O353      1.05653      .   S
    C4     O353      1.05653      .   S
    C160   O354      0.69227      .   S
    C98    O354      0.69227      .   S
    C4     O355      1.61167      .   S
    C15    O355      1.61167      .   S
    C4     O356      1.61317      .   S
    C14    O356      1.61317  1_655   S
    C121   O357      0.54189      .   S
    C46    O357      0.54189      .   S
    C121   O358      0.68722      .   S
    C122   O358      0.68722  1_565   S
    C97    O359      0.54188      .   S
    C16    O359      0.54188      .   S
    C97    O360      0.68727      .   S
    C98    O360      0.68727      .   S
    C122   O361      0.54146      .   S
    C47    O361      0.54146      .   S
    C98    O362      0.54144      .   S
    C17    O362      0.54144      .   S
    C37    O363      0.54143      .   S
    C114   O363      0.54143      .   S
    C27    O364      0.54147      .   S
    C106   O364      0.54147      .   S
    C15    O365      1.61179      .   S
    C5     O365      1.61179      .   S
    C15    O366      1.05114      .   S
    C187   O366      1.05114      .   S
    C14    O367      1.61327      .   S
    C5     O367      1.61327      .   S
    C14    O368      1.05106  1_655   S
    C183   O368      1.05106      .   S
    C114   O369      0.68720  1_565   S
    C113   O369      0.68720      .   S
    C114   O370      0.69226      .   S
    C168   O370      0.69226      .   S
    C106   O371      0.68728      .   S
    C105   O371      0.68728      .   S
    C106   O372      0.69226      .   S
    C164   O372      0.69226      .   S
    C36    O373      0.54188      .   S
    C113   O373      0.54188      .   S
    C26    O374      0.54188      .   S
    C105   O374      0.54188      .   S
    C83    O375      0.54842      .   S
    C151   O375      0.54842      .   S
    C73    O376      0.54842      .   S
    C143   O376      0.54842      .   S
    C113   O377      0.69344      .   S
    C169   O377      0.69344      .   S
    C105   O378      0.69341      .   S
    C165   O378      0.69341      .   S
    C5     O379      1.05639      .   S
    C164   O379      1.05639      .   S
    C5     O380      1.05636      .   S
    C168   O380      1.05636      .   S
    C164   O381      0.67745      .   S
    C104   O381      0.67745      .   S
    C168   O382      0.67742      .   S
    C112   O382      0.67742      .   S
    C187   O383      0.67810      .   S
    C148   O383      0.67810      .   S
    C187   O384      0.69365      .   S
    C149   O384      0.69365      .   S
    C183   O385      0.67810      .   S
    C140   O385      0.67810      .   S
    C183   O386      0.69362      .   S
    C141   O386      0.69362      .   S
    C75    O387      0.55058      .   S
    C143   O387      0.55058      .   S
    C151   O388      0.55058      .   S
    C85    O388      0.55058      .   S
    C151   O389      0.74335      .   S
    C148   O389      0.74335      .   S
    C151   O390      0.54946      .   S
    C84    O390      0.54946      .   S
    C143   O391      0.74334      .   S
    C140   O391      0.74334      .   S
    C143   O392      0.54945      .   S
    C74    O392      0.54945      .   S
    C81    O393      0.54208      .   S
    C149   O393      0.54208      .   S
    C71    O394      0.54145      .   S
    C141   O394      0.54145      .   S
    C169   O395      0.67887      .   S
    C112   O395      0.67887  1_565   S
    C169   O396      1.04875      .   S
    C2     O396      1.04875      .   S
    C165   O397      0.67890      .   S
    C104   O397      0.67890      .   S
    C165   O398      1.04873      .   S
    C1     O398      1.04873      .   S
    C148   O399      0.67736      .   S
    C186   O399      0.67736      .   S
    C140   O400      0.67735      .   S
    C182   O400      0.67735      .   S
    C149   O401      0.68751      .   S
    C150   O401      0.68751      .   S
    C141   O402      0.68753      .   S
    C142   O402      0.68753      .   S
    C104   O403      0.74449      .   S
    C107   O403      0.74449      .   S
    C112   O404      0.74449      .   S
    C115   O404      0.74449      .   S
    C186   O405      0.69346      .   S
    C150   O405      0.69346      .   S
    C182   O406      0.69345      .   S
    C142   O406      0.69345      .   S
    C28    O407      0.54977      .   S
    C107   O407      0.54977      .   S
    C107   O408      0.55040      .   S
    C29    O408      0.55040      .   S
    C38    O409      0.54978      .   S
    C115   O409      0.54978      .   S
    C115   O410      0.55039      .   S
    C39    O410      0.55039      .   S
    C1     O411      1.52186      .   S
    C2     O411      1.52186      .   S
