# CIF file generated by openbabel 2.4.90, see http://openbabel.sf.net
data_I
_chemical_name_common ''
_cell_length_a 9.73
_cell_length_b 13.257
_cell_length_c 20.935
_cell_angle_alpha 86.324
_cell_angle_beta 80.17
_cell_angle_gamma 68.899
_space_group_name_H-M_alt 'P 1'
_space_group_name_Hall 'P 1'
loop_
    _symmetry_equiv_pos_as_xyz
    x,y,z
loop_
    _atom_site_label
    _atom_site_type_symbol
    _atom_site_fract_x
    _atom_site_fract_y
    _atom_site_fract_z
    _atom_site_occupancy
    Zn0     Zn   0.14506   0.74744   0.49741   1.000
    Zn1     Zn   0.39599   0.24917   0.99799   1.000
    Zn2     Zn   0.85483   0.25262   0.50260   1.000
    H3      H    0.38983   0.64540   0.04673   1.000
    H4      H    0.37014   0.49600   0.12312   1.000
    H5      H    0.84464   0.40305   0.12541   1.000
    H6      H    0.84487   0.55116   0.04892   1.000
    H7      H    0.76257   0.33109   0.22800   1.000
    H8      H    0.78590   0.24074   0.16272   1.000
    H9      H    0.51368   0.11513   0.24281   1.000
    H10     H    0.53274   0.19849   0.17303   1.000
    H11     H    0.92030   0.87793   0.13812   1.000
    H12     H    0.87997   0.75276   0.06534   1.000
    H13     H    0.44280   0.95552   0.06219   1.000
    H14     H    0.46402   0.08991   0.13176   1.000
    H15     H    0.77477   0.85655   0.80779   1.000
    H16     H    0.96588   0.50998   0.81364   1.000
    H17     H    0.05793   0.84523   0.92673   1.000
    H18     H    0.19367   0.00000   0.06065   1.000
    H19     H    0.46369   0.64338   0.45569   1.000
    H20     H    0.63456   0.49508   0.38022   1.000
    H21     H    0.25374   0.40336   0.36993   1.000
    H22     H    0.10334   0.54995   0.44606   1.000
    H23     H    0.41086   0.32948   0.27130   1.000
    H24     H    0.47586   0.23974   0.33717   1.000
    H25     H    0.87236   0.11623   0.25838   1.000
    H26     H    0.77106   0.20049   0.32746   1.000
    H27     H    0.70086   0.87796   0.36224   1.000
    H28     H    0.86646   0.75064   0.43362   1.000
    H29     H    0.10266   0.95435   0.43835   1.000
    H30     H    0.94715   0.09079   0.36990   1.000
    H31     H    0.86469   0.85369   0.68874   1.000
    Zn32    Zn   0.60396   0.75088   0.00203   1.000
    H33     H    0.04135   0.50673   0.69258   1.000
    H34     H    0.59658   0.84396   0.57259   1.000
    H35     H    0.29667   0.00000   0.44008   1.000
    H36     H    0.61011   0.35467   0.95327   1.000
    H37     H    0.62978   0.50407   0.87688   1.000
    H38     H    0.15528   0.59700   0.87461   1.000
    H39     H    0.15507   0.44890   0.95109   1.000
    H40     H    0.23733   0.66899   0.77201   1.000
    H41     H    0.21402   0.75933   0.83729   1.000
    H42     H    0.48624   0.88494   0.75720   1.000
    H43     H    0.46717   0.80158   0.82699   1.000
    H44     H    0.07963   0.12215   0.86189   1.000
    H45     H    0.11996   0.24731   0.93467   1.000
    H46     H    0.55713   0.04454   0.93783   1.000
    H47     H    0.53590   0.91015   0.86825   1.000
    H48     H    0.22515   0.14350   0.19223   1.000
    H49     H    0.03408   0.49007   0.18637   1.000
    H50     H    0.94201   0.15484   0.07328   1.000
    H51     H    0.80626   0.99167   0.93936   1.000
    H52     H    0.53620   0.35668   0.54432   1.000
    H53     H    0.36533   0.50500   0.61979   1.000
    H54     H    0.74616   0.59670   0.63008   1.000
    H55     H    0.89656   0.45011   0.55395   1.000
    H56     H    0.58904   0.67058   0.72870   1.000
    H57     H    0.52405   0.76034   0.66284   1.000
    H58     H    0.12755   0.88386   0.74163   1.000
    H59     H    0.22884   0.79959   0.67255   1.000
    H60     H    0.29905   0.12212   0.63777   1.000
    H61     H    0.13344   0.24944   0.56638   1.000
    H62     H    0.89726   0.04571   0.56166   1.000
    H63     H    0.05277   0.90929   0.63011   1.000
    H64     H    0.13522   0.14637   0.31128   1.000
    H65     H    0.95858   0.49333   0.30742   1.000
    H66     H    0.40334   0.15610   0.42741   1.000
    H67     H    0.70324   0.99121   0.55993   1.000
    C68     C    0.48627   0.59079   0.06668   1.000
    C69     C    0.47565   0.50872   0.10885   1.000
    C70     C    0.60348   0.44073   0.13340   1.000
    C71     C    0.73966   0.45486   0.11089   1.000
    C72     C    0.74055   0.53900   0.06798   1.000
    C73     C    0.70736   0.28966   0.20299   1.000
    C74     C    0.58980   0.14849   0.21129   1.000
    C75     C    0.69392   0.99281   0.14343   1.000
    C76     C    0.81209   0.89649   0.12309   1.000
    C77     C    0.78979   0.82728   0.08248   1.000
    C78     C    0.54620   0.94105   0.08066   1.000
    C79     C    0.55818   0.01479   0.12122   1.000
    C80     C    0.81342   0.68303   0.89045   1.000
    C81     C    0.86440   0.68322   0.81830   1.000
    C82     C    0.83523   0.77995   0.78263   1.000
    C83     C    0.94178   0.58479   0.78559   1.000
    C84     C    0.29441   0.83049   0.98205   1.000
    C85     C    0.14164   0.91741   0.99276   1.000
    C86     C    0.03152   0.91365   0.95862   1.000
    C87     C    0.10817   0.00000   0.03442   1.000
    C88     C    0.42246   0.58941   0.43420   1.000
    C89     C    0.51617   0.50793   0.39248   1.000
    C90     C    0.45717   0.44051   0.36608   1.000
    C91     C    0.30636   0.45460   0.38631   1.000
    C92     C    0.22027   0.53809   0.42895   1.000
    C93     C    0.50622   0.28900   0.29687   1.000
    C94     C    0.76343   0.14976   0.28967   1.000
    C95     C    0.81335   0.99345   0.35773   1.000
    C96     C    0.79085   0.89634   0.37737   1.000
    C97     C    0.88249   0.82594   0.41723   1.000
    C98     C    0.01334   0.94019   0.41982   1.000
    C99     C    0.92760   0.01514   0.37996   1.000
    C100    C    0.01226   0.67580   0.61100   1.000
    C101    C    0.95910   0.67979   0.68312   1.000
    C102    C    0.88474   0.77835   0.71605   1.000
    C103    C    0.98531   0.58301   0.71858   1.000
    C104    C    0.37371   0.82947   0.51790   1.000
    C105    C    0.44012   0.91700   0.50729   1.000
    C106    C    0.55468   0.91297   0.54103   1.000
    C107    C    0.38636   0.00000   0.46598   1.000
    C108    C    0.51366   0.40927   0.93333   1.000
    C109    C    0.52428   0.49134   0.89116   1.000
    C110    C    0.39644   0.55933   0.86661   1.000
    C111    C    0.26027   0.54520   0.88912   1.000
    C112    C    0.25938   0.46105   0.93203   1.000
    C113    C    0.29255   0.71041   0.79702   1.000
    C114    C    0.41012   0.85158   0.78872   1.000
    C115    C    0.30600   0.00726   0.85658   1.000
    C116    C    0.18783   0.10358   0.87692   1.000
    C117    C    0.21014   0.17279   0.91753   1.000
    C118    C    0.45372   0.05901   0.91935   1.000
    C119    C    0.44174   0.98527   0.87879   1.000
    C120    C    0.18654   0.31701   0.10956   1.000
    C121    C    0.13554   0.31683   0.18172   1.000
    C122    C    0.16470   0.22010   0.21739   1.000
    C123    C    0.05816   0.41526   0.21442   1.000
    C124    C    0.70552   0.16957   0.01796   1.000
    C125    C    0.85829   0.08266   0.00726   1.000
    C126    C    0.96842   0.08641   0.04139   1.000
    C127    C    0.89176   0.99532   0.96559   1.000
    C128    C    0.57744   0.41066   0.56582   1.000
    C129    C    0.48373   0.49215   0.60753   1.000
    C130    C    0.54273   0.55957   0.63392   1.000
    C131    C    0.69354   0.54547   0.61370   1.000
    C132    C    0.77963   0.46198   0.57106   1.000
    C133    C    0.49368   0.71107   0.70313   1.000
    C134    C    0.23648   0.85032   0.71034   1.000
    C135    C    0.18656   0.00662   0.64228   1.000
    C136    C    0.20906   0.10374   0.62264   1.000
    C137    C    0.11742   0.17414   0.58277   1.000
    C138    C    0.98658   0.05988   0.58019   1.000
    C139    C    0.07232   0.98493   0.62004   1.000
    C140    C    0.98765   0.32427   0.38901   1.000
    C141    C    0.04083   0.32027   0.31690   1.000
    C142    C    0.11518   0.22171   0.28396   1.000
    C143    C    0.01463   0.41705   0.28143   1.000
    C144    C    0.62622   0.17058   0.48210   1.000
    C145    C    0.55979   0.08306   0.49271   1.000
    C146    C    0.44523   0.08709   0.45898   1.000
    C147    C    0.61355   0.99506   0.53402   1.000
    C148    C    0.64252   0.21796   0.25022   1.000
    C149    C    0.35739   0.78212   0.74979   1.000
    N150    N    0.61627   0.60831   0.04694   1.000
    N151    N    0.65817   0.84756   0.06125   1.000
    N152    N    0.27474   0.60683   0.45176   1.000
    N153    N    0.99443   0.84581   0.43848   1.000
    N154    N    0.38367   0.39174   0.95307   1.000
    N155    N    0.34176   0.15250   0.93877   1.000
    N156    N    0.72515   0.39324   0.54826   1.000
    N157    N    0.00549   0.15426   0.56153   1.000
    O158    O    0.58210   0.36776   0.17787   1.000
    O159    O    0.71897   0.05926   0.18266   1.000
    O160    O    0.69323   0.76456   0.91143   1.000
    O161    O    0.88329   0.60857   0.92498   1.000
    O162    O    0.38758   0.84040   0.01696   1.000
    O163    O    0.32408   0.75692   0.94217   1.000
    O164    O    0.55251   0.36804   0.32216   1.000
    O165    O    0.72174   0.06080   0.31912   1.000
    O166    O    0.03962   0.76143   0.58723   1.000
    O167    O    0.02846   0.59508   0.57909   1.000
    O168    O    0.27073   0.83934   0.48306   1.000
    O169    O    0.41723   0.75537   0.55763   1.000
    O170    O    0.41781   0.63231   0.82214   1.000
    O171    O    0.28095   0.94081   0.81735   1.000
    O172    O    0.30672   0.23547   0.08858   1.000
    O173    O    0.11669   0.39148   0.07503   1.000
    O174    O    0.61236   0.15964   0.98305   1.000
    O175    O    0.67585   0.24316   0.05784   1.000
    O176    O    0.44738   0.63204   0.67785   1.000
    O177    O    0.27818   0.93928   0.68089   1.000
    O178    O    0.96028   0.23865   0.41278   1.000
    O179    O    0.97143   0.40500   0.42092   1.000
    O180    O    0.72918   0.16071   0.51695   1.000
    O181    O    0.58275   0.24466   0.44235   1.000
loop_
    _geom_bond_atom_site_label_1
    _geom_bond_atom_site_label_2
    _geom_bond_distance
    _geom_bond_site_symmetry_2
    _ccdc_geom_bond_type
    Zn32   O162      1.99060      .   S
    Zn32   N150      2.02928      .   S
    Zn32   N151      2.09094      .   S
    Zn32   O160      1.97259  1_554   S
    C125   C124      1.50782      .   S
    C125   C126      1.40204      .   S
    C125   C127      1.40302  1_544   S
    O162   C84       1.30284  1_554   S
    C124   O175      1.24556      .   S
    C124   O174      1.30287  1_554   S
    C87    C126      1.41944  1_455   S
    C87    H18       1.07221      .   S
    C87    C85       1.35445  1_544   S
    C126   H50       1.08896      .   S
    H3     C68       1.08859      .   S
    N150   C68       1.35842      .   S
    N150   C72       1.35301      .   S
    H6     C72       1.08928      .   S
    N151   C78       1.35259      .   S
    N151   C77       1.35683      .   S
    H13    C78       1.08774      .   S
    H12    C77       1.09020      .   S
    C68    C69       1.37856      .   S
    C72    C71       1.38828      .   S
    O173   C120      1.24594      .   S
    C78    C79       1.38292  1_565   S
    C77    C76       1.38498      .   S
    O172   C120      1.30542      .   S
    O172   Zn1       1.97264  1_554   S
    C69    H4        1.08865      .   S
    C69    C70       1.40544      .   S
    C120   C121      1.50746      .   S
    C71    H5        1.08699      .   S
    C71    C70       1.40247      .   S
    C79    H14       1.08724      .   S
    C79    C75       1.40015  1_545   S
    C76    H11       1.08840      .   S
    C76    C75       1.40686      .   S
    C70    O158      1.34509      .   S
    C75    O159      1.35125  1_565   S
    H8     C73       1.09935      .   S
    H10    C74       1.09906      .   S
    O158   C73       1.44020      .   S
    C121   C123      1.40339      .   S
    C121   C122      1.40365      .   S
    O159   C74       1.44962      .   S
    H49    C123      1.09016      .   S
    H48    C122      1.08965      .   S
    C73    H7        1.09998      .   S
    C73    C148      1.54193      .   S
    C74    H9        1.10054      .   S
    C74    C148      1.53445      .   S
    C123   C143      1.39352      .   S
    C122   C142      1.39363      .   S
    C148   C94       1.53426      .   S
    C148   C93       1.54148      .   S
    H25    C94       1.10053      .   S
    H23    C93       1.09986      .   S
    C143   H65       1.09006  1_455   S
    C143   C141      1.40330      .   S
    C142   H64       1.08962      .   S
    C142   C141      1.40373      .   S
    C94    O165      1.44954      .   S
    C94    H26       1.09900      .   S
    C93    O164      1.43987      .   S
    C93    H24       1.09937      .   S
    C141   C140      1.50779  1_455   S
    O165   C95       1.35115  1_545   S
    O164   C90       1.34520      .   S
    C95    C96       1.40667      .   S
    C95    C99       1.39963  1_565   S
    H27    C96       1.08840      .   S
    C90    C91       1.40286      .   S
    C90    C89       1.40532      .   S
    H30    C99       1.08758      .   S
    H21    C91       1.08688      .   S
    C96    C97       1.38486      .   S
    C99    C98       1.38348  1_645   S
    H20    C89       1.08872      .   S
    C91    C92       1.38819      .   S
    C140   O178      1.30649      .   S
    C140   O179      1.24526      .   S
    C89    C88       1.37867      .   S
    O178   Zn2       1.96778      .   S
    C97    H28       1.09023      .   S
    C97    N153      1.35660      .   S
    C98    H29       1.08760      .   S
    C98    N153      1.35298  1_455   S
    H66    C146      1.08897      .   S
    C92    H22       1.08933      .   S
    C92    N152      1.35258      .   S
    C88    N152      1.35854      .   S
    C88    H19       1.08866      .   S
    N153   Zn0       2.09903  1_655   S
    H35    C107      1.10332      .   S
    O181   C144      1.24587      .   S
    N152   Zn0       2.02570      .   S
    C146   C107      1.45212      .   S
    C146   C145      1.40181      .   S
    C107   C105      1.36022  1_545   S
    C144   C145      1.50708      .   S
    C144   O180      1.30233      .   S
    O168   Zn0       1.99247      .   S
    O168   C104      1.30232      .   S
    C145   C147      1.40294  1_545   S
    Zn0    O166      1.96780      .   S
    Zn2    O180      1.99242      .   S
    Zn2    N156      2.02576      .   S
    Zn2    N157      2.09910  1_655   S
    C105   C104      1.50710      .   S
    C105   C106      1.40182      .   S
    C104   O169      1.24588      .   S
    C147   C106      1.39054      .   S
    C147   H67       1.08828      .   S
    C106   H34       1.08897      .   S
    H52    C128      1.08867      .   S
    N156   C128      1.35855      .   S
    N156   C132      1.35260      .   S
    H55    C132      1.08932      .   S
    N157   C138      1.35298  1_455   S
    N157   C137      1.35654      .   S
    H62    C138      1.08763      .   S
    C128   C129      1.37866      .   S
    H61    C137      1.09025      .   S
    C132   C131      1.38819      .   S
    O167   C100      1.24527      .   S
    C138   C139      1.38344  1_645   S
    C137   C136      1.38486      .   S
    O166   C100      1.30648      .   S
    C129   H53       1.08871      .   S
    C129   C130      1.40532      .   S
    C100   C101      1.50785  1_455   S
    C131   H54       1.08689      .   S
    C131   C130      1.40285      .   S
    C139   H63       1.08760      .   S
    C139   C135      1.39962  1_565   S
    C136   H60       1.08841      .   S
    C136   C135      1.40669      .   S
    C130   O176      1.34521      .   S
    C135   O177      1.35117  1_545   S
    H57    C133      1.09937      .   S
    H59    C134      1.09899      .   S
    O176   C133      1.43985      .   S
    O177   C134      1.44955      .   S
    C101   C102      1.40373      .   S
    C101   C103      1.40328      .   S
    H31    C102      1.08962      .   S
    H33    C103      1.09012  1_455   S
    C133   H56       1.09987      .   S
    C133   C149      1.54146      .   S
    C134   H58       1.10053      .   S
    C134   C149      1.53429      .   S
    C102   C82       1.39363      .   S
    C103   C83       1.39351      .   S
    C149   C114      1.53445      .   S
    C149   C113      1.54197      .   S
    H42    C114      1.10053      .   S
    H40    C113      1.09997      .   S
    C82    H15       1.08965      .   S
    C82    C81       1.40365      .   S
    C83    H16       1.09015      .   S
    C83    C81       1.40340      .   S
    C114   O171      1.44961      .   S
    C114   H43       1.09906      .   S
    C113   O170      1.44021      .   S
    C113   H41       1.09934      .   S
    O171   C115      1.35126  1_565   S
    C81    C80       1.50745      .   S
    O170   C110      1.34510      .   S
    C115   C116      1.40686      .   S
    C115   C119      1.40016  1_545   S
    H44    C116      1.08838      .   S
    C110   C111      1.40247      .   S
    C110   C109      1.40543      .   S
    H47    C119      1.08724      .   S
    H38    C111      1.08699      .   S
    H37    C109      1.08864      .   S
    C116   C117      1.38500      .   S
    C119   C118      1.38290  1_565   S
    C111   C112      1.38830      .   S
    C80    O160      1.30541      .   S
    C80    O161      1.24596      .   S
    C109   C108      1.37858      .   S
    C117   H45       1.09019      .   S
    C117   N155      1.35682      .   S
    C118   H46       1.08775      .   S
    C118   N155      1.35259      .   S
    H17    C86       1.08898      .   S
    C112   H39       1.08927      .   S
    C112   N154      1.35301      .   S
    C108   N154      1.35842      .   S
    C108   H36       1.08859      .   S
    N155   Zn1       2.09092      .   S
    H51    C127      1.08833      .   S
    O163   C84       1.24557      .   S
    N154   Zn1       2.02940      .   S
    C86    C127      1.39107  1_455   S
    C86    C85       1.40204      .   S
    C84    C85       1.50783      .   S
    O174   Zn1       1.99053      .   S
