# CIF file generated by openbabel 2.4.90, see http://openbabel.sf.net
data_I
_chemical_name_common ''
_cell_length_a 9.73
_cell_length_b 13.257
_cell_length_c 20.935
_cell_angle_alpha 86.324
_cell_angle_beta 80.17
_cell_angle_gamma 68.899
_space_group_name_H-M_alt 'P 1'
_space_group_name_Hall 'P 1'
loop_
    _symmetry_equiv_pos_as_xyz
    x,y,z
loop_
    _atom_site_label
    _atom_site_type_symbol
    _atom_site_fract_x
    _atom_site_fract_y
    _atom_site_fract_z
    _atom_site_occupancy
    Zr0     Zr   0.60396   0.75088   0.00203   1.000
    Zr1     Zr   0.14506   0.74744   0.49741   1.000
    Zr2     Zr   0.39599   0.24917   0.99799   1.000
    Zr3     Zr   0.85483   0.25262   0.50260   1.000
    N4      N    0.63997   0.22063   0.24997   1.000
    O5      O    0.62504   0.45011   0.13723   1.000
    O6      O    0.63552   0.00993   0.14081   1.000
    O7      O    0.42494   0.44888   0.36228   1.000
    O8      O    0.85486   0.00863   0.35896   1.000
    N9      N    0.91172   0.68153   0.75070   1.000
    O10     O    0.78016   0.71963   0.85372   1.000
    O11     O    0.00203   0.71798   0.64651   1.000
    N12     N    0.99997   0.99921   0.00001   1.000
    O13     O    0.24787   0.89743   0.00475   1.000
    O14     O    0.75207   0.10181   0.99526   1.000
    N15     N    0.35995   0.77944   0.75004   1.000
    O16     O    0.37489   0.54995   0.86278   1.000
    O17     O    0.36441   0.99014   0.85921   1.000
    O18     O    0.57497   0.55118   0.63773   1.000
    O19     O    0.14505   0.99144   0.64105   1.000
    N20     N    0.08821   0.31852   0.24931   1.000
    O21     O    0.21978   0.28042   0.14630   1.000
    O22     O    0.99788   0.28208   0.35350   1.000
    N23     N    0.49996   0.99916   0.50000   1.000
    O24     O    0.35393   0.89628   0.49512   1.000
    O25     O    0.64598   0.10291   0.50489   1.000
loop_
    _geom_bond_atom_site_label_1
    _geom_bond_atom_site_label_2
    _geom_bond_distance
    _geom_bond_site_symmetry_2
    _ccdc_geom_bond_type
    N4     O5        3.70481      .   S
    Zr0    O5        4.70253      .   S
    N4     O6        3.73731      .   S
    Zr0    O6        4.76156  1_565   S
    N4     O7        3.70613      .   S
    Zr1    O7        4.70411      .   S
    N4     O8        3.74857      .   S
    Zr1    O8        4.77822  1_465   S
    N9     O10       2.29701      .   S
    Zr0    O10       3.25380  1_554   S
    N9     O11       2.29772  1_655   S
    Zr1    O11       3.25340      .   S
    N12    O13       2.31729  1_655   S
    Zr0    O13       3.29881      .   S
    N12    O14       2.31948  1_564   S
    Zr2    O14       3.30104      .   S
    N15    O16       3.70490      .   S
    Zr2    O16       4.70268      .   S
    N15    O17       3.73730      .   S
    Zr2    O17       4.76153  1_545   S
    N15    O18       3.70614      .   S
    Zr3    O18       4.70416      .   S
    N15    O19       3.74859      .   S
    Zr3    O19       4.77826  1_645   S
    N20    O21       2.29701      .   S
    Zr2    O21       3.25379  1_556   S
    N20    O22       2.29773  1_455   S
    Zr3    O22       3.25343      .   S
    N23    O24       2.31358      .   S
    Zr1    O24       3.29657      .   S
    N23    O25       2.32287  1_565   S
    Zr3    O25       3.30589      .   S
