# CIF file generated by openbabel 2.4.90, see http://openbabel.sf.net
data_I
_chemical_name_common ''
_cell_length_a 9.73
_cell_length_b 13.257
_cell_length_c 20.935
_cell_angle_alpha 86.324
_cell_angle_beta 80.17
_cell_angle_gamma 68.899
_space_group_name_H-M_alt 'P 1'
_space_group_name_Hall 'P 1'
loop_
    _symmetry_equiv_pos_as_xyz
    x,y,z
loop_
    _atom_site_label
    _atom_site_type_symbol
    _atom_site_fract_x
    _atom_site_fract_y
    _atom_site_fract_z
    _atom_site_occupancy
    C0      C    0.60396   0.75088   0.00203   1.000
    C1      C    0.14506   0.74744   0.49741   1.000
    C2      C    0.39599   0.24917   0.99799   1.000
    C3      C    0.85483   0.25262   0.50260   1.000
    C4      C    0.38983   0.64540   0.04673   1.000
    C5      C    0.37014   0.49600   0.12312   1.000
    C6      C    0.84464   0.40305   0.12541   1.000
    C7      C    0.84487   0.55116   0.04892   1.000
    C8      C    0.76257   0.33109   0.22800   1.000
    C9      C    0.78590   0.24074   0.16272   1.000
    C10     C    0.51368   0.11513   0.24281   1.000
    C11     C    0.53274   0.19849   0.17303   1.000
    C12     C    0.92030   0.87793   0.13812   1.000
    C13     C    0.87997   0.75276   0.06534   1.000
    C14     C    0.44280   0.95552   0.06219   1.000
    C15     C    0.46402   0.08991   0.13176   1.000
    C16     C    0.77477   0.85655   0.80779   1.000
    C17     C    0.96588   0.50998   0.81364   1.000
    C18     C    0.05793   0.84523   0.92673   1.000
    C19     C    0.19367   0.00000   0.06065   1.000
    C20     C    0.46369   0.64338   0.45569   1.000
    C21     C    0.63456   0.49508   0.38022   1.000
    C22     C    0.25374   0.40336   0.36993   1.000
    C23     C    0.10334   0.54995   0.44606   1.000
    C24     C    0.41086   0.32948   0.27130   1.000
    C25     C    0.47586   0.23974   0.33717   1.000
    C26     C    0.87236   0.11623   0.25838   1.000
    C27     C    0.77106   0.20049   0.32746   1.000
    C28     C    0.70086   0.87796   0.36224   1.000
    C29     C    0.86646   0.75064   0.43362   1.000
    C30     C    0.10266   0.95435   0.43835   1.000
    C31     C    0.94715   0.09079   0.36990   1.000
    C32     C    0.86469   0.85369   0.68874   1.000
    C33     C    0.04135   0.50673   0.69258   1.000
    C34     C    0.59658   0.84396   0.57259   1.000
    C35     C    0.29667   0.00000   0.44008   1.000
    C36     C    0.61011   0.35467   0.95327   1.000
    C37     C    0.62978   0.50407   0.87688   1.000
    C38     C    0.15528   0.59700   0.87461   1.000
    C39     C    0.15507   0.44890   0.95109   1.000
    C40     C    0.23733   0.66899   0.77201   1.000
    C41     C    0.21402   0.75933   0.83729   1.000
    C42     C    0.48624   0.88494   0.75720   1.000
    C43     C    0.46717   0.80158   0.82699   1.000
    C44     C    0.07963   0.12215   0.86189   1.000
    C45     C    0.11996   0.24731   0.93467   1.000
    C46     C    0.55713   0.04454   0.93783   1.000
    C47     C    0.53590   0.91015   0.86825   1.000
    C48     C    0.22515   0.14350   0.19223   1.000
    C49     C    0.03408   0.49007   0.18637   1.000
    C50     C    0.94201   0.15484   0.07328   1.000
    C51     C    0.80626   0.99167   0.93936   1.000
    C52     C    0.53620   0.35668   0.54432   1.000
    C53     C    0.36533   0.50500   0.61979   1.000
    C54     C    0.74616   0.59670   0.63008   1.000
    C55     C    0.89656   0.45011   0.55395   1.000
    C56     C    0.58904   0.67058   0.72870   1.000
    C57     C    0.52405   0.76034   0.66284   1.000
    C58     C    0.12755   0.88386   0.74163   1.000
    C59     C    0.22884   0.79959   0.67255   1.000
    C60     C    0.29905   0.12212   0.63777   1.000
    C61     C    0.13344   0.24944   0.56638   1.000
    C62     C    0.89726   0.04571   0.56166   1.000
    C63     C    0.05277   0.90929   0.63011   1.000
    C64     C    0.13522   0.14637   0.31128   1.000
    C65     C    0.95858   0.49333   0.30742   1.000
    C66     C    0.40334   0.15610   0.42741   1.000
    C67     C    0.70324   0.99121   0.55993   1.000
    C68     C    0.48627   0.59079   0.06668   1.000
    C69     C    0.47565   0.50872   0.10885   1.000
    C70     C    0.60348   0.44073   0.13340   1.000
    C71     C    0.73966   0.45486   0.11089   1.000
    C72     C    0.74055   0.53900   0.06798   1.000
    C73     C    0.70736   0.28966   0.20299   1.000
    C74     C    0.58980   0.14849   0.21129   1.000
    C75     C    0.69392   0.99281   0.14343   1.000
    C76     C    0.81209   0.89649   0.12309   1.000
    C77     C    0.78979   0.82728   0.08248   1.000
    C78     C    0.54620   0.94105   0.08066   1.000
    C79     C    0.55818   0.01479   0.12122   1.000
    C80     C    0.81342   0.68303   0.89045   1.000
    C81     C    0.86440   0.68322   0.81830   1.000
    C82     C    0.83523   0.77995   0.78263   1.000
    C83     C    0.94178   0.58479   0.78559   1.000
    C84     C    0.29441   0.83049   0.98205   1.000
    C85     C    0.14164   0.91741   0.99276   1.000
    C86     C    0.03152   0.91365   0.95862   1.000
    C87     C    0.10817   0.00000   0.03442   1.000
    C88     C    0.42246   0.58941   0.43420   1.000
    C89     C    0.51617   0.50793   0.39248   1.000
    C90     C    0.45717   0.44051   0.36608   1.000
    C91     C    0.30636   0.45460   0.38631   1.000
    C92     C    0.22027   0.53809   0.42895   1.000
    C93     C    0.50622   0.28900   0.29687   1.000
    C94     C    0.76343   0.14976   0.28967   1.000
    C95     C    0.81335   0.99345   0.35773   1.000
    C96     C    0.79085   0.89634   0.37737   1.000
    C97     C    0.88249   0.82594   0.41723   1.000
    C98     C    0.01334   0.94019   0.41982   1.000
    C99     C    0.92760   0.01514   0.37996   1.000
    C100    C    0.01226   0.67580   0.61100   1.000
    C101    C    0.95910   0.67979   0.68312   1.000
    C102    C    0.88474   0.77835   0.71605   1.000
    C103    C    0.98531   0.58301   0.71858   1.000
    C104    C    0.37371   0.82947   0.51790   1.000
    C105    C    0.44012   0.91700   0.50729   1.000
    C106    C    0.55468   0.91297   0.54103   1.000
    C107    C    0.38636   0.00000   0.46598   1.000
    C108    C    0.51366   0.40927   0.93333   1.000
    C109    C    0.52428   0.49134   0.89116   1.000
    C110    C    0.39644   0.55933   0.86661   1.000
    C111    C    0.26027   0.54520   0.88912   1.000
    C112    C    0.25938   0.46105   0.93203   1.000
    C113    C    0.29255   0.71041   0.79702   1.000
    C114    C    0.41012   0.85158   0.78872   1.000
    C115    C    0.30600   0.00726   0.85658   1.000
    C116    C    0.18783   0.10358   0.87692   1.000
    C117    C    0.21014   0.17279   0.91753   1.000
    C118    C    0.45372   0.05901   0.91935   1.000
    C119    C    0.44174   0.98527   0.87879   1.000
    C120    C    0.18654   0.31701   0.10956   1.000
    C121    C    0.13554   0.31683   0.18172   1.000
    C122    C    0.16470   0.22010   0.21739   1.000
    C123    C    0.05816   0.41526   0.21442   1.000
    C124    C    0.70552   0.16957   0.01796   1.000
    C125    C    0.85829   0.08266   0.00726   1.000
    C126    C    0.96842   0.08641   0.04139   1.000
    C127    C    0.89176   0.99532   0.96559   1.000
    C128    C    0.57744   0.41066   0.56582   1.000
    C129    C    0.48373   0.49215   0.60753   1.000
    C130    C    0.54273   0.55957   0.63392   1.000
    C131    C    0.69354   0.54547   0.61370   1.000
    C132    C    0.77963   0.46198   0.57106   1.000
    C133    C    0.49368   0.71107   0.70313   1.000
    C134    C    0.23648   0.85032   0.71034   1.000
    C135    C    0.18656   0.00662   0.64228   1.000
    C136    C    0.20906   0.10374   0.62264   1.000
    C137    C    0.11742   0.17414   0.58277   1.000
    C138    C    0.98658   0.05988   0.58019   1.000
    C139    C    0.07232   0.98493   0.62004   1.000
    C140    C    0.98765   0.32427   0.38901   1.000
    C141    C    0.04083   0.32027   0.31690   1.000
    C142    C    0.11518   0.22171   0.28396   1.000
    C143    C    0.01463   0.41705   0.28143   1.000
    C144    C    0.62622   0.17058   0.48210   1.000
    C145    C    0.55979   0.08306   0.49271   1.000
    C146    C    0.44523   0.08709   0.45898   1.000
    C147    C    0.61355   0.99506   0.53402   1.000
    C148    C    0.64252   0.21796   0.25022   1.000
    C149    C    0.35739   0.78212   0.74979   1.000
    C150    C    0.61627   0.60831   0.04694   1.000
    C151    C    0.65817   0.84756   0.06125   1.000
    C152    C    0.27474   0.60683   0.45176   1.000
    C153    C    0.99443   0.84581   0.43848   1.000
    C154    C    0.38367   0.39174   0.95307   1.000
    C155    C    0.34176   0.15250   0.93877   1.000
    C156    C    0.72515   0.39324   0.54826   1.000
    C157    C    0.00549   0.15426   0.56153   1.000
    C158    C    0.58210   0.36776   0.17787   1.000
    C159    C    0.71897   0.05926   0.18266   1.000
    C160    C    0.69323   0.76456   0.91143   1.000
    C161    C    0.88329   0.60857   0.92498   1.000
    C162    C    0.38758   0.84040   0.01696   1.000
    C163    C    0.32408   0.75692   0.94217   1.000
    C164    C    0.55251   0.36804   0.32216   1.000
    C165    C    0.72174   0.06080   0.31912   1.000
    C166    C    0.03962   0.76143   0.58723   1.000
    C167    C    0.02846   0.59508   0.57909   1.000
    C168    C    0.27073   0.83934   0.48306   1.000
    C169    C    0.41723   0.75537   0.55763   1.000
    C170    C    0.41781   0.63231   0.82214   1.000
    C171    C    0.28095   0.94081   0.81735   1.000
    C172    C    0.30672   0.23547   0.08858   1.000
    C173    C    0.11669   0.39148   0.07503   1.000
    C174    C    0.61236   0.15964   0.98305   1.000
    C175    C    0.67585   0.24316   0.05784   1.000
    C176    C    0.44738   0.63204   0.67785   1.000
    C177    C    0.27818   0.93928   0.68089   1.000
    C178    C    0.96028   0.23865   0.41278   1.000
    C179    C    0.97143   0.40500   0.42092   1.000
    C180    C    0.72918   0.16071   0.51695   1.000
    C181    C    0.58275   0.24466   0.44235   1.000
    O182    O    0.49577   0.79564   0.00949   1.000
    O183    O    0.61011   0.67960   0.02448   1.000
    O184    O    0.63106   0.79922   0.03164   1.000
    O185    O    0.64859   0.75772   0.95673   1.000
    O186    O    0.78191   0.12611   0.01261   1.000
    O187    O    0.91336   0.08454   0.02433   1.000
    O188    O    0.87503   0.03899   0.98643   1.000
    O189    O    0.34099   0.83545   0.99951   1.000
    O190    O    0.69068   0.20637   0.03790   1.000
    O191    O    0.65894   0.16461   0.00051   1.000
    O192    O    0.03829   0.04321   0.03791   1.000
    O193    O    0.15092   0.00000   0.04754   1.000
    O194    O    0.12491   0.95870   0.01359   1.000
    O195    O    0.95521   0.12063   0.05734   1.000
    O196    O    0.43805   0.61809   0.05670   1.000
    O197    O    0.55127   0.59955   0.05681   1.000
    O198    O    0.67841   0.57366   0.05746   1.000
    O199    O    0.79271   0.54508   0.05845   1.000
    O200    O    0.60219   0.89431   0.07095   1.000
    O201    O    0.72398   0.83742   0.07186   1.000
    O202    O    0.49450   0.94829   0.07142   1.000
    O203    O    0.83488   0.79002   0.07391   1.000
    O204    O    0.48096   0.54976   0.08776   1.000
    O205    O    0.74010   0.49693   0.08944   1.000
    O206    O    0.15162   0.35424   0.09229   1.000
    O207    O    0.55219   0.97792   0.10094   1.000
    O208    O    0.80094   0.86189   0.10278   1.000
    O209    O    0.24663   0.27624   0.09907   1.000
    O210    O    0.35136   0.24232   0.04329   1.000
    O211    O    0.42289   0.50236   0.11599   1.000
    O212    O    0.53956   0.47473   0.12112   1.000
    O213    O    0.16104   0.31692   0.14564   1.000
    O214    O    0.79215   0.42896   0.11815   1.000
    O215    O    0.67157   0.44779   0.12214   1.000
    O216    O    0.51110   0.05235   0.12649   1.000
    O217    O    0.62605   0.00380   0.13233   1.000
    O218    O    0.86619   0.88721   0.13060   1.000
    O219    O    0.75300   0.94465   0.13326   1.000
    O220    O    0.59279   0.40424   0.15563   1.000
    O221    O    0.70645   0.02604   0.16304   1.000
    O222    O    0.74663   0.26520   0.18285   1.000
    O223    O    0.56127   0.17349   0.19216   1.000
    O224    O    0.64473   0.32871   0.19043   1.000
    O225    O    0.09685   0.36605   0.19807   1.000
    O226    O    0.15012   0.26847   0.19955   1.000
    O227    O    0.65438   0.10388   0.19697   1.000
    O228    O    0.04612   0.45267   0.20040   1.000
    O229    O    0.19493   0.18180   0.20481   1.000
    O230    O    0.73496   0.31038   0.21549   1.000
    O231    O    0.67494   0.25381   0.22660   1.000
    O232    O    0.55174   0.13181   0.22705   1.000
    O233    O    0.61616   0.18323   0.23075   1.000
    O234    O    0.03640   0.41615   0.24793   1.000
    O235    O    0.13994   0.22091   0.25068   1.000
    O236    O    0.70297   0.18386   0.26994   1.000
    O237    O    0.57437   0.25348   0.27355   1.000
    O238    O    0.81790   0.13299   0.27403   1.000
    O239    O    0.45854   0.30924   0.28409   1.000
    O240    O    0.98660   0.45519   0.29442   1.000
    O241    O    0.02773   0.36866   0.29916   1.000
    O242    O    0.12520   0.18404   0.29762   1.000
    O243    O    0.07800   0.27099   0.30043   1.000
    O244    O    0.74258   0.10528   0.30439   1.000
    O245    O    0.76725   0.17512   0.30856   1.000
    O246    O    0.52937   0.32852   0.30952   1.000
    O247    O    0.49104   0.26437   0.31702   1.000
    O248    O    0.01424   0.32227   0.35295   1.000
    O249    O    0.76755   0.02713   0.33842   1.000
    O250    O    0.50484   0.40427   0.34412   1.000
    O251    O    0.80210   0.94490   0.36755   1.000
    O252    O    0.87047   0.00430   0.36885   1.000
    O253    O    0.74585   0.88715   0.36980   1.000
    O254    O    0.38176   0.44755   0.37620   1.000
    O255    O    0.48667   0.47422   0.37928   1.000
    O256    O    0.93737   0.05297   0.37493   1.000
    O257    O    0.28005   0.42898   0.37812   1.000
    O258    O    0.83667   0.86114   0.39730   1.000
    O259    O    0.97047   0.97767   0.39989   1.000
    O260    O    0.57537   0.50150   0.38635   1.000
    O261    O    0.26331   0.49634   0.40763   1.000
    O262    O    0.97396   0.28146   0.40089   1.000
    O263    O    0.97954   0.36463   0.40496   1.000
    O264    O    0.46931   0.54867   0.41334   1.000
    O265    O    0.90755   0.24563   0.45769   1.000
    O266    O    0.87447   0.78829   0.42543   1.000
    O267    O    0.93846   0.83588   0.42786   1.000
    O268    O    0.05800   0.94727   0.42908   1.000
    O269    O    0.00388   0.89300   0.42915   1.000
    O270    O    0.42429   0.12160   0.44319   1.000
    O271    O    0.16180   0.54402   0.43751   1.000
    O272    O    0.24751   0.57246   0.44035   1.000
    O273    O    0.34860   0.59812   0.44298   1.000
    O274    O    0.44307   0.61640   0.44494   1.000
    O275    O    0.06974   0.79663   0.46794   1.000
    O276    O    0.34151   0.00000   0.45303   1.000
    O277    O    0.60449   0.20762   0.46223   1.000
    O278    O    0.20990   0.67713   0.47458   1.000
    O279    O    0.41579   0.04355   0.46248   1.000
    O280    O    0.50251   0.08508   0.47584   1.000
    O281    O    0.41324   0.95850   0.48664   1.000
    O282    O    0.59300   0.12682   0.48741   1.000
    O283    O    0.67770   0.16564   0.49953   1.000
    O284    O    0.20790   0.79339   0.49023   1.000
    O285    O    0.32222   0.83440   0.50048   1.000
    O286    O    0.58667   0.03906   0.51337   1.000
    O287    O    0.09234   0.75443   0.54232   1.000
    O288    O    0.79200   0.20666   0.50978   1.000
    O289    O    0.78999   0.32293   0.52543   1.000
    O290    O    0.93016   0.20344   0.53207   1.000
    O291    O    0.40692   0.87324   0.51259   1.000
    O292    O    0.49740   0.91499   0.52416   1.000
    O293    O    0.39547   0.79242   0.53776   1.000
    O294    O    0.58412   0.95401   0.53752   1.000
    O295    O    0.65840   0.99313   0.54697   1.000
    O296    O    0.57563   0.87846   0.55681   1.000
    O297    O    0.55682   0.38367   0.55507   1.000
    O298    O    0.65129   0.40195   0.55704   1.000
    O299    O    0.75239   0.42761   0.55966   1.000
    O300    O    0.83809   0.45604   0.56251   1.000
    O301    O    0.99603   0.10707   0.57086   1.000
    O302    O    0.06145   0.16420   0.57215   1.000
    O303    O    0.94192   0.05280   0.57092   1.000
    O304    O    0.53058   0.45141   0.58667   1.000
    O305    O    0.12543   0.21179   0.57458   1.000
    O306    O    0.73659   0.50372   0.59238   1.000
    O307    O    0.02036   0.63544   0.59505   1.000
    O308    O    0.02945   0.02241   0.60012   1.000
    O309    O    0.16324   0.13894   0.60271   1.000
    O310    O    0.02594   0.71861   0.59912   1.000
    O311    O    0.42453   0.49857   0.61366   1.000
    O312    O    0.51323   0.52586   0.62073   1.000
    O313    O    0.98568   0.67780   0.64706   1.000
    O314    O    0.71985   0.57108   0.62189   1.000
    O315    O    0.61814   0.55252   0.62381   1.000
    O316    O    0.06255   0.94711   0.62507   1.000
    O317    O    0.12944   0.99578   0.63116   1.000
    O318    O    0.25405   0.11293   0.63021   1.000
    O319    O    0.19781   0.05518   0.63246   1.000
    O320    O    0.49506   0.59580   0.65589   1.000
    O321    O    0.23237   0.97295   0.66159   1.000
    O322    O    0.50886   0.73570   0.68299   1.000
    O323    O    0.23266   0.82496   0.69145   1.000
    O324    O    0.47053   0.67156   0.69049   1.000
    O325    O    0.25733   0.89480   0.69562   1.000
    O326    O    0.92192   0.72907   0.69959   1.000
    O327    O    0.97220   0.63140   0.70085   1.000
    O328    O    0.87472   0.81602   0.70239   1.000
    O329    O    0.01333   0.54487   0.70558   1.000
    O330    O    0.54136   0.69083   0.71592   1.000
    O331    O    0.42554   0.74659   0.72646   1.000
    O332    O    0.18201   0.86709   0.72598   1.000
    O333    O    0.29694   0.81622   0.73007   1.000
    O334    O    0.85998   0.77915   0.74934   1.000
    O335    O    0.96355   0.58390   0.75208   1.000
    O336    O    0.38376   0.81685   0.76926   1.000
    O337    O    0.32497   0.74626   0.77341   1.000
    O338    O    0.44818   0.86826   0.77296   1.000
    O339    O    0.26494   0.68970   0.78452   1.000
    O340    O    0.80500   0.81825   0.79521   1.000
    O341    O    0.84981   0.73158   0.80046   1.000
    O342    O    0.95383   0.54739   0.79961   1.000
    O343    O    0.90309   0.63401   0.80194   1.000
    O344    O    0.34553   0.89619   0.80304   1.000
    O345    O    0.43864   0.82658   0.80785   1.000
    O346    O    0.35518   0.67136   0.80958   1.000
    O347    O    0.25328   0.73487   0.81716   1.000
    O348    O    0.29347   0.97403   0.83697   1.000
    O349    O    0.83891   0.68313   0.85437   1.000
    O350    O    0.40713   0.59582   0.84437   1.000
    O351    O    0.24692   0.05542   0.86675   1.000
    O352    O    0.37387   0.99627   0.86769   1.000
    O353    O    0.13373   0.11286   0.86941   1.000
    O354    O    0.32835   0.55227   0.87787   1.000
    O355    O    0.46036   0.52533   0.87888   1.000
    O356    O    0.48882   0.94771   0.87352   1.000
    O357    O    0.20777   0.57110   0.88187   1.000
    O358    O    0.57703   0.49771   0.88402   1.000
    O359    O    0.19899   0.13818   0.89723   1.000
    O360    O    0.44773   0.02214   0.89907   1.000
    O361    O    0.25982   0.50313   0.91058   1.000
    O362    O    0.75332   0.72380   0.90094   1.000
    O363    O    0.84835   0.64580   0.90772   1.000
    O364    O    0.51897   0.45031   0.91224   1.000
    O365    O    0.16505   0.21005   0.92610   1.000
    O366    O    0.27595   0.16265   0.92815   1.000
    O367    O    0.50542   0.05177   0.92859   1.000
    O368    O    0.39774   0.10575   0.92906   1.000
    O369    O    0.04472   0.87944   0.94268   1.000
    O370    O    0.20722   0.45497   0.94156   1.000
    O371    O    0.32153   0.42640   0.94255   1.000
    O372    O    0.44866   0.40050   0.94320   1.000
    O373    O    0.56188   0.38197   0.94330   1.000
    O374    O    0.36887   0.20084   0.96838   1.000
    O375    O    0.84901   0.99349   0.95248   1.000
    O376    O    0.30925   0.79370   0.96211   1.000
    O377    O    0.38983   0.32045   0.97553   1.000
    O378    O    0.96164   0.95449   0.96211   1.000
    O379    O    0.08658   0.91553   0.97569   1.000
    O380    O    0.21803   0.87395   0.98741   1.000
    O381    O    0.50417   0.20441   0.99052   1.000
loop_
    _geom_bond_atom_site_label_1
    _geom_bond_atom_site_label_2
    _geom_bond_distance
    _geom_bond_site_symmetry_2
    _ccdc_geom_bond_type
    C0     O182      0.99530      .   S
    C162   O182      0.99530      .   S
    C0     O183      1.01464      .   S
    C150   O183      1.01464      .   S
    C0     O184      1.04547      .   S
    C151   O184      1.04547      .   S
    C0     O185      0.98629  1_554   S
    C160   O185      0.98629      .   S
    C125   O186      0.75391      .   S
    C124   O186      0.75391      .   S
    C125   O187      0.70102      .   S
    C126   O187      0.70102      .   S
    C125   O188      0.70151  1_554   S
    C127   O188      0.70151  1_565   S
    C162   O189      0.65142  1_554   S
    C84    O189      0.65142      .   S
    C124   O190      0.62278      .   S
    C175   O190      0.62278      .   S
    C124   O191      0.65143      .   S
    C174   O191      0.65143  1_556   S
    C87    O192      0.70972      .   S
    C126   O192      0.70972  1_655   S
    C87    O193      0.53611      .   S
    C19    O193      0.53611      .   S
    C87    O194      0.67722  1_545   S
    C85    O194      0.67722  1_556   S
    C126   O195      0.54448      .   S
    C50    O195      0.54448      .   S
    C4     O196      0.54429      .   S
    C68    O196      0.54429      .   S
    C150   O197      0.67921      .   S
    C68    O197      0.67921      .   S
    C150   O198      0.67651      .   S
    C72    O198      0.67651      .   S
    C7     O199      0.54464      .   S
    C72    O199      0.54464      .   S
    C151   O200      0.67630      .   S
    C78    O200      0.67630      .   S
    C151   O201      0.67841      .   S
    C77    O201      0.67841      .   S
    C14    O202      0.54387      .   S
    C78    O202      0.54387      .   S
    C13    O203      0.54510      .   S
    C77    O203      0.54510      .   S
    C68    O204      0.68928      .   S
    C69    O204      0.68928      .   S
    C72    O205      0.69414      .   S
    C71    O205      0.69414      .   S
    C173   O206      0.62297      .   S
    C120   O206      0.62297      .   S
    C78    O207      0.69146      .   S
    C79    O207      0.69146  1_545   S
    C77    O208      0.69249      .   S
    C76    O208      0.69249      .   S
    C172   O209      0.65271      .   S
    C120   O209      0.65271      .   S
    C172   O210      0.98632      .   S
    C2     O210      0.98632  1_556   S
    C69    O211      0.54433      .   S
    C5     O211      0.54433      .   S
    C69    O212      0.70272      .   S
    C70    O212      0.70272      .   S
    C120   O213      0.75373      .   S
    C121   O213      0.75373      .   S
    C71    O214      0.54349      .   S
    C6     O214      0.54349      .   S
    C71    O215      0.70123      .   S
    C70    O215      0.70123      .   S
    C79    O216      0.54362      .   S
    C15    O216      0.54362      .   S
    C79    O217      0.70007      .   S
    C75    O217      0.70007  1_565   S
    C76    O218      0.54420      .   S
    C12    O218      0.54420      .   S
    C76    O219      0.70343      .   S
    C75    O219      0.70343      .   S
    C70    O220      0.67255      .   S
    C158   O220      0.67255      .   S
    C75    O221      0.67563  1_565   S
    C159   O221      0.67563      .   S
    C9     O222      0.54968      .   S
    C73    O222      0.54968      .   S
    C11    O223      0.54953      .   S
    C74    O223      0.54953      .   S
    C158   O224      0.72010      .   S
    C73    O224      0.72010      .   S
    C121   O225      0.70170      .   S
    C123   O225      0.70170      .   S
    C121   O226      0.70182      .   S
    C122   O226      0.70182      .   S
    C159   O227      0.72481      .   S
    C74    O227      0.72481      .   S
    C49    O228      0.54508      .   S
    C123   O228      0.54508      .   S
    C48    O229      0.54482      .   S
    C122   O229      0.54482      .   S
    C73    O230      0.54999      .   S
    C8     O230      0.54999      .   S
    C73    O231      0.77096      .   S
    C148   O231      0.77096      .   S
    C74    O232      0.55027      .   S
    C10    O232      0.55027      .   S
    C74    O233      0.76723      .   S
    C148   O233      0.76723      .   S
    C123   O234      0.69676      .   S
    C143   O234      0.69676      .   S
    C122   O235      0.69682      .   S
    C142   O235      0.69682      .   S
    C148   O236      0.76713      .   S
    C94    O236      0.76713      .   S
    C148   O237      0.77074      .   S
    C93    O237      0.77074      .   S
    C26    O238      0.55026      .   S
    C94    O238      0.55026      .   S
    C24    O239      0.54993      .   S
    C93    O239      0.54993      .   S
    C143   O240      0.54503  1_455   S
    C65    O240      0.54503      .   S
    C143   O241      0.70165      .   S
    C141   O241      0.70165      .   S
    C142   O242      0.54481      .   S
    C64    O242      0.54481      .   S
    C142   O243      0.70186      .   S
    C141   O243      0.70186      .   S
    C94    O244      0.72477      .   S
    C165   O244      0.72477      .   S
    C94    O245      0.54950      .   S
    C27    O245      0.54950      .   S
    C93    O246      0.71993      .   S
    C164   O246      0.71993      .   S
    C93    O247      0.54969      .   S
    C25    O247      0.54969      .   S
    C141   O248      0.75389      .   S
    C140   O248      0.75389  1_655   S
    C165   O249      0.67558      .   S
    C95    O249      0.67558  1_565   S
    C164   O250      0.67260      .   S
    C90    O250      0.67260      .   S
    C95    O251      0.70333      .   S
    C96    O251      0.70333      .   S
    C95    O252      0.69982  1_565   S
    C99    O252      0.69982      .   S
    C28    O253      0.54420      .   S
    C96    O253      0.54420      .   S
    C90    O254      0.70143      .   S
    C91    O254      0.70143      .   S
    C90    O255      0.70266      .   S
    C89    O255      0.70266      .   S
    C31    O256      0.54379      .   S
    C99    O256      0.54379      .   S
    C22    O257      0.54344      .   S
    C91    O257      0.54344      .   S
    C96    O258      0.69243      .   S
    C97    O258      0.69243      .   S
    C99    O259      0.69174  1_545   S
    C98    O259      0.69174  1_455   S
    C21    O260      0.54436      .   S
    C89    O260      0.54436      .   S
    C91    O261      0.69409      .   S
    C92    O261      0.69409      .   S
    C140   O262      0.65325      .   S
    C178   O262      0.65325      .   S
    C140   O263      0.62263      .   S
    C179   O263      0.62263      .   S
    C89    O264      0.68934      .   S
    C88    O264      0.68934      .   S
    C178   O265      0.98389      .   S
    C3     O265      0.98389      .   S
    C97    O266      0.54511      .   S
    C29    O266      0.54511      .   S
    C97    O267      0.67830      .   S
    C153   O267      0.67830      .   S
    C98    O268      0.54380      .   S
    C30    O268      0.54380      .   S
    C98    O269      0.67649      .   S
    C153   O269      0.67649  1_655   S
    C66    O270      0.54449      .   S
    C146   O270      0.54449      .   S
    C92    O271      0.54466      .   S
    C23    O271      0.54466      .   S
    C92    O272      0.67629      .   S
    C152   O272      0.67629      .   S
    C88    O273      0.67927      .   S
    C152   O273      0.67927      .   S
    C88    O274      0.54433      .   S
    C20    O274      0.54433      .   S
    C153   O275      1.04951  1_655   S
    C1     O275      1.04951      .   S
    C35    O276      0.55166      .   S
    C107   O276      0.55166      .   S
    C181   O277      0.62294      .   S
    C144   O277      0.62294      .   S
    C152   O278      1.01285      .   S
    C1     O278      1.01285      .   S
    C146   O279      0.72606      .   S
    C107   O279      0.72606      .   S
    C146   O280      0.70091      .   S
    C145   O280      0.70091      .   S
    C107   O281      0.68011  1_545   S
    C105   O281      0.68011      .   S
    C144   O282      0.75354      .   S
    C145   O282      0.75354      .   S
    C144   O283      0.65117      .   S
    C180   O283      0.65117      .   S
    C168   O284      0.99624      .   S
    C1     O284      0.99624      .   S
    C168   O285      0.65116      .   S
    C104   O285      0.65116      .   S
    C145   O286      0.70147      .   S
    C147   O286      0.70147  1_565   S
    C1     O287      0.98390      .   S
    C166   O287      0.98390      .   S
    C3     O288      0.99621      .   S
    C180   O288      0.99621      .   S
    C3     O289      1.01288      .   S
    C156   O289      1.01288      .   S
    C3     O290      1.04955      .   S
    C157   O290      1.04955  1_455   S
    C105   O291      0.75355      .   S
    C104   O291      0.75355      .   S
    C105   O292      0.70091      .   S
    C106   O292      0.70091      .   S
    C104   O293      0.62294      .   S
    C169   O293      0.62294      .   S
    C147   O294      0.69527      .   S
    C106   O294      0.69527      .   S
    C147   O295      0.54414      .   S
    C67    O295      0.54414      .   S
    C106   O296      0.54448      .   S
    C34    O296      0.54448      .   S
    C52    O297      0.54434      .   S
    C128   O297      0.54434      .   S
    C156   O298      0.67927      .   S
    C128   O298      0.67927      .   S
    C156   O299      0.67630      .   S
    C132   O299      0.67630      .   S
    C55    O300      0.54466      .   S
    C132   O300      0.54466      .   S
    C157   O301      0.67649  1_455   S
    C138   O301      0.67649      .   S
    C157   O302      0.67827      .   S
    C137   O302      0.67827      .   S
    C62    O303      0.54381      .   S
    C138   O303      0.54381      .   S
    C128   O304      0.68933      .   S
    C129   O304      0.68933      .   S
    C61    O305      0.54512      .   S
    C137   O305      0.54512      .   S
    C132   O306      0.69409      .   S
    C131   O306      0.69409      .   S
    C167   O307      0.62263      .   S
    C100   O307      0.62263      .   S
    C138   O308      0.69172  1_655   S
    C139   O308      0.69172  1_565   S
    C137   O309      0.69243      .   S
    C136   O309      0.69243      .   S
    C166   O310      0.65324      .   S
    C100   O310      0.65324      .   S
    C129   O311      0.54435      .   S
    C53    O311      0.54435      .   S
    C129   O312      0.70266      .   S
    C130   O312      0.70266      .   S
    C100   O313      0.75393  1_455   S
    C101   O313      0.75393      .   S
    C131   O314      0.54345      .   S
    C54    O314      0.54345      .   S
    C131   O315      0.70143      .   S
    C130   O315      0.70143      .   S
    C139   O316      0.54380      .   S
    C63    O316      0.54380      .   S
    C139   O317      0.69981      .   S
    C135   O317      0.69981  1_545   S
    C136   O318      0.54420      .   S
    C60    O318      0.54420      .   S
    C136   O319      0.70334      .   S
    C135   O319      0.70334      .   S
    C130   O320      0.67261      .   S
    C176   O320      0.67261      .   S
    C135   O321      0.67559  1_545   S
    C177   O321      0.67559      .   S
    C57    O322      0.54969      .   S
    C133   O322      0.54969      .   S
    C59    O323      0.54950      .   S
    C134   O323      0.54950      .   S
    C176   O324      0.71993      .   S
    C133   O324      0.71993      .   S
    C177   O325      0.72478      .   S
    C134   O325      0.72478      .   S
    C101   O326      0.70187      .   S
    C102   O326      0.70187      .   S
    C101   O327      0.70164      .   S
    C103   O327      0.70164      .   S
    C32    O328      0.54481      .   S
    C102   O328      0.54481      .   S
    C33    O329      0.54506      .   S
    C103   O329      0.54506  1_655   S
    C133   O330      0.54993      .   S
    C56    O330      0.54993      .   S
    C133   O331      0.77073      .   S
    C149   O331      0.77073      .   S
    C134   O332      0.55027      .   S
    C58    O332      0.55027      .   S
    C134   O333      0.76715      .   S
    C149   O333      0.76715      .   S
    C102   O334      0.69681      .   S
    C82    O334      0.69681      .   S
    C103   O335      0.69676      .   S
    C83    O335      0.69676      .   S
    C149   O336      0.76723      .   S
    C114   O336      0.76723      .   S
    C149   O337      0.77098      .   S
    C113   O337      0.77098      .   S
    C42    O338      0.55027      .   S
    C114   O338      0.55027      .   S
    C40    O339      0.54999      .   S
    C113   O339      0.54999      .   S
    C82    O340      0.54482      .   S
    C16    O340      0.54482      .   S
    C82    O341      0.70183      .   S
    C81    O341      0.70183      .   S
    C83    O342      0.54508      .   S
    C17    O342      0.54508      .   S
    C83    O343      0.70170      .   S
    C81    O343      0.70170      .   S
    C114   O344      0.72481      .   S
    C171   O344      0.72481      .   S
    C114   O345      0.54953      .   S
    C43    O345      0.54953      .   S
    C113   O346      0.72011      .   S
    C170   O346      0.72011      .   S
    C113   O347      0.54967      .   S
    C41    O347      0.54967      .   S
    C171   O348      0.67563      .   S
    C115   O348      0.67563  1_545   S
    C81    O349      0.75372      .   S
    C80    O349      0.75372      .   S
    C170   O350      0.67255      .   S
    C110   O350      0.67255      .   S
    C115   O351      0.70343      .   S
    C116   O351      0.70343      .   S
    C115   O352      0.70008  1_545   S
    C119   O352      0.70008      .   S
    C44    O353      0.54419      .   S
    C116   O353      0.54419      .   S
    C110   O354      0.70124      .   S
    C111   O354      0.70124      .   S
    C110   O355      0.70272      .   S
    C109   O355      0.70272      .   S
    C47    O356      0.54362      .   S
    C119   O356      0.54362      .   S
    C38    O357      0.54349      .   S
    C111   O357      0.54349      .   S
    C37    O358      0.54432      .   S
    C109   O358      0.54432      .   S
    C116   O359      0.69250      .   S
    C117   O359      0.69250      .   S
    C119   O360      0.69145  1_565   S
    C118   O360      0.69145      .   S
    C111   O361      0.69415      .   S
    C112   O361      0.69415      .   S
    C80    O362      0.65271      .   S
    C160   O362      0.65271      .   S
    C80    O363      0.62298      .   S
    C161   O363      0.62298      .   S
    C109   O364      0.68929      .   S
    C108   O364      0.68929      .   S
    C117   O365      0.54509      .   S
    C45    O365      0.54509      .   S
    C117   O366      0.67841      .   S
    C155   O366      0.67841      .   S
    C118   O367      0.54387      .   S
    C46    O367      0.54387      .   S
    C118   O368      0.67629      .   S
    C155   O368      0.67629      .   S
    C18    O369      0.54449      .   S
    C86    O369      0.54449      .   S
    C112   O370      0.54464      .   S
    C39    O370      0.54464      .   S
    C112   O371      0.67651      .   S
    C154   O371      0.67651      .   S
    C108   O372      0.67921      .   S
    C154   O372      0.67921      .   S
    C108   O373      0.54429      .   S
    C36    O373      0.54429      .   S
    C155   O374      1.04546      .   S
    C2     O374      1.04546      .   S
    C51    O375      0.54417      .   S
    C127   O375      0.54417      .   S
    C163   O376      0.62279      .   S
    C84    O376      0.62279      .   S
    C154   O377      1.01470      .   S
    C2     O377      1.01470      .   S
    C86    O378      0.69554  1_455   S
    C127   O378      0.69554      .   S
    C86    O379      0.70102      .   S
    C85    O379      0.70102      .   S
    C84    O380      0.75392      .   S
    C85    O380      0.75392      .   S
    C174   O381      0.99527      .   S
    C2     O381      0.99527      .   S
