# CIF file generated by openbabel 2.4.90, see http://openbabel.sf.net
data_I
_chemical_name_common ''
_cell_length_a 9.73
_cell_length_b 13.257
_cell_length_c 20.935
_cell_angle_alpha 86.324
_cell_angle_beta 80.17
_cell_angle_gamma 68.899
_space_group_name_H-M_alt 'P 1'
_space_group_name_Hall 'P 1'
loop_
    _symmetry_equiv_pos_as_xyz
    x,y,z
loop_
    _atom_site_label
    _atom_site_type_symbol
    _atom_site_fract_x
    _atom_site_fract_y
    _atom_site_fract_z
    _atom_site_occupancy
    N0      N    0.63997   0.22063   0.24997   1.000
    N1      N    0.91172   0.68153   0.75070   1.000
    N2      N    0.99997   0.99921   0.00001   1.000
    N3      N    0.35995   0.77944   0.75004   1.000
    N4      N    0.08821   0.31852   0.24931   1.000
    N5      N    0.49996   0.99916   0.50000   1.000
    Zr6     Zr   0.60396   0.75088   0.00203   1.000
    O7      O    0.42591   0.82415   0.00339   1.000
    O8      O    0.69206   0.73525   0.92787   1.000
    O9      O    0.61450   0.60050   0.06963   1.000
    O10     O    0.61974   0.88040   0.07142   1.000
    Zr11    Zr   0.14506   0.74744   0.49741   1.000
    O12     O    0.07355   0.73271   0.57196   1.000
    O13     O    0.24950   0.82186   0.49626   1.000
    O14     O    0.28500   0.59816   0.42984   1.000
    O15     O    0.99996   0.87803   0.42818   1.000
    Zr16    Zr   0.39599   0.24917   0.99799   1.000
    O17     O    0.57403   0.17549   0.99663   1.000
    O18     O    0.30789   0.26480   0.07214   1.000
    O19     O    0.38544   0.39956   0.93039   1.000
    O20     O    0.38020   0.11965   0.92860   1.000
    Zr21    Zr   0.85483   0.25262   0.50260   1.000
    O22     O    0.92635   0.26735   0.42805   1.000
    O23     O    0.71490   0.40190   0.57017   1.000
    O24     O    0.99994   0.12203   0.57183   1.000
    O25     O    0.75040   0.17777   0.50375   1.000
loop_
    _geom_bond_atom_site_label_1
    _geom_bond_atom_site_label_2
    _geom_bond_distance
    _geom_bond_site_symmetry_2
    _ccdc_geom_bond_type
    Zr6    O7        1.64941      .   S
    N2     O7        3.96498  1_655   S
    Zr6    O8        1.62690  1_554   S
    N1     O8        3.92026      .   S
    Zr6    O9        2.35126      .   S
    N0     O9        6.05467      .   S
    Zr6    O10       2.38078      .   S
    N0     O10       6.11630  1_545   S
    Zr11   O12       1.62670      .   S
    N1     O12       3.92093  1_655   S
    Zr11   O13       1.64829      .   S
    N5     O13       3.96022      .   S
    Zr11   O14       2.35206      .   S
    N0     O14       6.05696      .   S
    Zr11   O15       2.38911  1_455   S
    N0     O15       6.13600  1_545   S
    Zr16   O17       1.65052      .   S
    N2     O17       3.96830  1_564   S
    Zr16   O18       1.62690  1_556   S
    N4     O18       3.92025      .   S
    Zr16   O19       2.35134      .   S
    N3     O19       6.05484      .   S
    Zr16   O20       2.38076      .   S
    N3     O20       6.11627  1_565   S
    Zr21   O22       1.62672      .   S
    N4     O22       3.92097  1_455   S
    Zr21   O23       2.35208      .   S
    N3     O23       6.05699      .   S
    Zr21   O24       2.38913      .   S
    N3     O24       6.13603  1_465   S
    Zr21   O25       1.65294      .   S
    N5     O25       3.97417  1_565   S
