# CIF file generated by openbabel 2.4.90, see http://openbabel.sf.net
data_I
_chemical_name_common ''
_cell_length_a 17.236
_cell_length_b 16.946
_cell_length_c 17.853
_cell_angle_alpha 89.935
_cell_angle_beta 90.001
_cell_angle_gamma 89.182
_space_group_name_H-M_alt 'P 1'
_space_group_name_Hall 'P 1'
loop_
    _symmetry_equiv_pos_as_xyz
    x,y,z
loop_
    _atom_site_label
    _atom_site_type_symbol
    _atom_site_fract_x
    _atom_site_fract_y
    _atom_site_fract_z
    _atom_site_occupancy
    C0      C    0.13839   0.75218   0.10781   1.000
    C1      C    0.10186   0.87660   0.58920   1.000
    C2      C    0.86142   0.75485   0.39374   1.000
    C3      C    0.60562   0.62605   0.41220   1.000
    C4      C    0.36097   0.74584   0.60840   1.000
    C5      C    0.60195   0.37659   0.91074   1.000
    C6      C    0.36150   0.25470   0.10637   1.000
    C7      C    0.10559   0.12492   0.08739   1.000
    C8      C    0.86163   0.24785   0.89217   1.000
    C9      C    0.39805   0.62343   0.08924   1.000
    C10     C    0.63851   0.74531   0.89361   1.000
    C11     C    0.89442   0.87509   0.91258   1.000
    C12     C    0.89802   0.12345   0.41074   1.000
    C13     C    0.13847   0.24524   0.60621   1.000
    C14     C    0.39430   0.37374   0.58792   1.000
    C15     C    0.63855   0.25353   0.39169   1.000
