# CIF file generated by openbabel 2.4.90, see http://openbabel.sf.net
data_I
_chemical_name_common ''
_cell_length_a 17.236
_cell_length_b 16.946
_cell_length_c 17.853
_cell_angle_alpha 89.935
_cell_angle_beta 90.001
_cell_angle_gamma 89.182
_space_group_name_H-M_alt 'P 1'
_space_group_name_Hall 'P 1'
loop_
    _symmetry_equiv_pos_as_xyz
    x,y,z
loop_
    _atom_site_label
    _atom_site_type_symbol
    _atom_site_fract_x
    _atom_site_fract_y
    _atom_site_fract_z
    _atom_site_occupancy
    C0      C    0.26287   0.88289   0.62700   1.000
    C1      C    0.76617   0.62000   0.37241   1.000
    C2      C    0.76299   0.38314   0.87221   1.000
    C3      C    0.26617   0.11977   0.12743   1.000
    C4      C    0.23702   0.61688   0.12777   1.000
    C5      C    0.73383   0.88025   0.87256   1.000
    C6      C    0.73696   0.11712   0.37208   1.000
    C7      C    0.23376   0.38005   0.62762   1.000
    C8      C    0.26332   0.07620   0.59869   1.000
    C9      C    0.14367   0.03226   0.19230   1.000
    C10     C    0.21083   0.83695   0.45893   1.000
    C11     C    0.31361   0.83528   0.46289   1.000
    C12     C    0.26558   0.86849   0.37980   1.000
    C13     C    0.26450   0.20088   0.52253   1.000
    C14     C    0.20732   0.18777   0.44045   1.000
    C15     C    0.30987   0.18784   0.43380   1.000
    C16     C    0.09421   0.91207   0.30592   1.000
    C17     C    0.05288   0.00000   0.33364   1.000
    C18     C    0.11241   0.95016   0.39682   1.000
    C19     C    0.40103   0.09905   0.24985   1.000
    C20     C    0.39911   0.07721   0.34782   1.000
    C21     C    0.36114   0.16830   0.31340   1.000
    C22     C    0.08838   0.72582   0.53783   1.000
    C23     C    0.98442   0.67335   0.45370   1.000
    C24     C    0.88305   0.90576   0.43790   1.000
    C25     C    0.98013   0.95486   0.52955   1.000
    C26     C    0.76849   0.42704   0.39982   1.000
    C27     C    0.63770   0.46892   0.80466   1.000
    C28     C    0.70854   0.66391   0.54501   1.000
    C29     C    0.81107   0.66547   0.53723   1.000
    C30     C    0.76712   0.63092   0.62141   1.000
    C31     C    0.76240   0.30084   0.47435   1.000
    C32     C    0.70870   0.31456   0.55877   1.000
    C33     C    0.81146   0.31116   0.56144   1.000
    C34     C    0.58901   0.59079   0.68826   1.000
    C35     C    0.54824   0.49860   0.66366   1.000
    C36     C    0.60765   0.54898   0.59879   1.000
    C37     C    0.89626   0.39765   0.75207   1.000
    C38     C    0.89758   0.42368   0.65494   1.000
    C39     C    0.85975   0.33181   0.68453   1.000
    C40     C    0.58884   0.77580   0.46695   1.000
    C41     C    0.48320   0.82717   0.55132   1.000
    C42     C    0.38545   0.59567   0.56073   1.000
    C43     C    0.48506   0.54762   0.46942   1.000
    C44     C    0.76279   0.57672   0.90100   1.000
    C45     C    0.64361   0.53330   0.30738   1.000
    C46     C    0.71057   0.33746   0.04151   1.000
    C47     C    0.81333   0.33584   0.03737   1.000
    C48     C    0.76545   0.36910   0.12036   1.000
    C49     C    0.76506   0.70143   0.97692   1.000
    C50     C    0.70719   0.68843   0.05861   1.000
    C51     C    0.80969   0.68827   0.06604   1.000
    C52     C    0.59475   0.41231   0.19410   1.000
    C53     C    0.55297   0.50443   0.16655   1.000
    C54     C    0.61254   0.45075   0.10318   1.000
    C55     C    0.90109   0.59988   0.24974   1.000
    C56     C    0.89907   0.57820   0.15179   1.000
    C57     C    0.86108   0.66921   0.18618   1.000
    C58     C    0.58826   0.22565   0.96207   1.000
    C59     C    0.48427   0.17314   0.04628   1.000
    C60     C    0.38341   0.40572   0.06236   1.000
    C61     C    0.48048   0.45485   0.97061   1.000
    C62     C    0.26941   0.92705   0.10028   1.000
    C63     C    0.13780   0.96888   0.69523   1.000
    C64     C    0.20833   0.16354   0.95428   1.000
    C65     C    0.31084   0.16542   0.96220   1.000
    C66     C    0.26716   0.13070   0.87810   1.000
    C67     C    0.26254   0.80070   0.02621   1.000
    C68     C    0.20894   0.81433   0.94168   1.000
    C69     C    0.31171   0.81086   0.93912   1.000
    C70     C    0.08911   0.09066   0.81095   1.000
    C71     C    0.04833   0.99863   0.83628   1.000
    C72     C    0.10778   0.04936   0.90073   1.000
    C73     C    0.39612   0.89678   0.74800   1.000
    C74     C    0.39750   0.92314   0.84519   1.000
    C75     C    0.35942   0.83129   0.81608   1.000
    C76     C    0.08974   0.27485   0.03339   1.000
    C77     C    0.98441   0.32761   0.94926   1.000
    C78     C    0.88498   0.09691   0.93894   1.000
    C79     C    0.98428   0.04750   0.00000   1.000
    C80     C    0.23719   0.42331   0.09903   1.000
    C81     C    0.35637   0.46661   0.69269   1.000
    C82     C    0.28940   0.66255   0.95800   1.000
    C83     C    0.18664   0.66418   0.96261   1.000
    C84     C    0.23454   0.63090   0.87964   1.000
    C85     C    0.23490   0.29859   0.02310   1.000
    C86     C    0.29278   0.31160   0.94142   1.000
    C87     C    0.19029   0.31175   0.93390   1.000
    C88     C    0.40519   0.58769   0.80592   1.000
    C89     C    0.44698   0.49557   0.83345   1.000
    C90     C    0.38743   0.54923   0.89684   1.000
    C91     C    0.09885   0.40016   0.75029   1.000
    C92     C    0.10086   0.42182   0.84824   1.000
    C93     C    0.13884   0.33081   0.81382   1.000
    C94     C    0.41175   0.77436   0.03791   1.000
    C95     C    0.51575   0.82687   0.95371   1.000
    C96     C    0.61658   0.59428   0.93760   1.000
    C97     C    0.51951   0.54515   0.00000   1.000
    C98     C    0.73058   0.07295   0.89967   1.000
    C99     C    0.86218   0.03120   0.30474   1.000
    C100    C    0.79169   0.83649   0.04571   1.000
    C101    C    0.68918   0.83459   0.03770   1.000
    C102    C    0.73285   0.86933   0.12188   1.000
    C103    C    0.73746   0.19931   0.97374   1.000
    C104    C    0.79109   0.18568   0.05825   1.000
    C105    C    0.68832   0.18915   0.06085   1.000
    C106    C    0.91092   0.90941   0.18900   1.000
    C107    C    0.95169   0.00000   0.16371   1.000
    C108    C    0.89225   0.95071   0.09925   1.000
    C109    C    0.60386   0.10323   0.25173   1.000
    C110    C    0.60249   0.07680   0.15474   1.000
    C111    C    0.64052   0.16868   0.18380   1.000
    C112    C    0.91027   0.72517   0.96659   1.000
    C113    C    0.01560   0.67242   0.05073   1.000
    C114    C    0.11503   0.90312   0.06102   1.000
    C115    C    0.01574   0.95252   0.96995   1.000
    C116    C    0.73669   0.92370   0.40133   1.000
    C117    C    0.85632   0.96777   0.80769   1.000
    C118    C    0.78912   0.16305   0.54092   1.000
    C119    C    0.68634   0.16464   0.53713   1.000
    C120    C    0.73453   0.13150   0.62006   1.000
    C121    C    0.73534   0.79906   0.47753   1.000
    C122    C    0.79258   0.81216   0.55958   1.000
    C123    C    0.69004   0.81217   0.56620   1.000
    C124    C    0.90574   0.08796   0.69405   1.000
    C125    C    0.94710   0.99576   0.66636   1.000
    C126    C    0.88756   0.04984   0.60316   1.000
    C127    C    0.59893   0.90106   0.75016   1.000
    C128    C    0.60089   0.92275   0.65210   1.000
    C129    C    0.63883   0.83170   0.68672   1.000
    C130    C    0.91149   0.27426   0.46213   1.000
    C131    C    0.01546   0.32674   0.54624   1.000
    C132    C    0.11683   0.09434   0.56207   1.000
    C133    C    0.01973   0.04523   0.47044   1.000
    C134    C    0.23174   0.57307   0.60016   1.000
    C135    C    0.36229   0.53107   0.19533   1.000
    C136    C    0.29149   0.33610   0.45507   1.000
    C137    C    0.18896   0.33458   0.46280   1.000
    C138    C    0.23296   0.36909   0.37864   1.000
    C139    C    0.23731   0.69923   0.52558   1.000
    C140    C    0.29137   0.68553   0.44138   1.000
    C141    C    0.18862   0.68882   0.43832   1.000
    C142    C    0.41092   0.40916   0.31170   1.000
    C143    C    0.45174   0.50133   0.33631   1.000
    C144    C    0.39232   0.45096   0.40118   1.000
    C145    C    0.10372   0.60232   0.24790   1.000
    C146    C    0.10242   0.57638   0.34500   1.000
    C147    C    0.14025   0.66822   0.31540   1.000
    C148    C    0.41072   0.22400   0.53327   1.000
    C149    C    0.51616   0.17239   0.44876   1.000
    C150    C    0.61448   0.40364   0.43938   1.000
    C151    C    0.51502   0.45193   0.53077   1.000
    C152    C    0.26308   0.86833   0.44127   1.000
    C153    C    0.26263   0.95086   0.46980   1.000
    C154    C    0.25769   0.02154   0.42786   1.000
    C155    C    0.26262   0.08272   0.48012   1.000
    C156    C    0.26111   0.16951   0.46907   1.000
    C157    C    0.10503   0.96631   0.33777   1.000
    C158    C    0.17540   0.00689   0.30900   1.000
    C159    C    0.24296   0.03040   0.34753   1.000
    C160    C    0.28931   0.06782   0.29300   1.000
    C161    C    0.36681   0.10477   0.30146   1.000
    C162    C    0.10186   0.87660   0.58920   1.000
    C163    C    0.04078   0.84386   0.53850   1.000
    C164    C    0.04253   0.76443   0.51628   1.000
    C165    C    0.98532   0.73554   0.46899   1.000
    C166    C    0.92694   0.86593   0.46094   1.000
    C167    C    0.98188   0.89383   0.51102   1.000
    C168    C    0.86142   0.75485   0.39374   1.000
    C169    C    0.92701   0.78607   0.44056   1.000
    C170    C    0.76230   0.63217   0.56015   1.000
    C171    C    0.76282   0.55016   0.53030   1.000
    C172    C    0.75606   0.47907   0.57116   1.000
    C173    C    0.76260   0.41844   0.51833   1.000
    C174    C    0.76129   0.33152   0.52830   1.000
    C175    C    0.60021   0.53513   0.65830   1.000
    C176    C    0.67078   0.49391   0.68762   1.000
    C177    C    0.73947   0.46986   0.65106   1.000
    C178    C    0.78571   0.43231   0.70638   1.000
    C179    C    0.86407   0.39468   0.69914   1.000
    C180    C    0.60562   0.62605   0.41220   1.000
    C181    C    0.54359   0.65821   0.46333   1.000
    C182    C    0.54356   0.73708   0.48727   1.000
    C183    C    0.48535   0.76537   0.53466   1.000
    C184    C    0.42910   0.63551   0.53918   1.000
    C185    C    0.48527   0.60822   0.48922   1.000
    C186    C    0.36097   0.74584   0.60840   1.000
    C187    C    0.42756   0.71487   0.56138   1.000
    C188    C    0.76283   0.36888   0.05897   1.000
    C189    C    0.76234   0.45140   0.03013   1.000
    C190    C    0.75772   0.52212   0.07200   1.000
    C191    C    0.76258   0.58326   0.01957   1.000
    C192    C    0.76118   0.67006   0.03043   1.000
    C193    C    0.60525   0.46669   0.16226   1.000
    C194    C    0.67554   0.50748   0.19009   1.000
    C195    C    0.74307   0.53104   0.15231   1.000
    C196    C    0.78934   0.56864   0.20600   1.000
    C197    C    0.86680   0.60566   0.19816   1.000
    C198    C    0.60195   0.37659   0.91074   1.000
    C199    C    0.54091   0.34378   0.96152   1.000
    C200    C    0.54252   0.26428   0.98370   1.000
    C201    C    0.48529   0.23537   0.03105   1.000
    C202    C    0.42720   0.36586   0.03926   1.000
    C203    C    0.48214   0.39378   0.98913   1.000
    C204    C    0.36150   0.25470   0.10637   1.000
    C205    C    0.42713   0.28594   0.05957   1.000
    C206    C    0.26222   0.13195   0.93935   1.000
    C207    C    0.26293   0.04996   0.96942   1.000
    C208    C    0.25609   0.97883   0.92870   1.000
    C209    C    0.26283   0.91825   0.98178   1.000
    C210    C    0.26151   0.83132   0.97212   1.000
    C211    C    0.10031   0.03518   0.84132   1.000
    C212    C    0.17084   0.99380   0.81220   1.000
    C213    C    0.23944   0.96958   0.84891   1.000
    C214    C    0.28565   0.93191   0.79370   1.000
    C215    C    0.36391   0.89410   0.80113   1.000
    C216    C    0.10559   0.12492   0.08739   1.000
    C217    C    0.04364   0.15761   0.03651   1.000
    C218    C    0.04418   0.23663   0.01291   1.000
    C219    C    0.98616   0.26568   0.96565   1.000
    C220    C    0.92894   0.13628   0.96061   1.000
    C221    C    0.98496   0.10822   0.00000   1.000
    C222    C    0.86163   0.24785   0.89217   1.000
    C223    C    0.92800   0.21579   0.93879   1.000
    C224    C    0.23714   0.63113   0.94103   1.000
    C225    C    0.23762   0.54861   0.96988   1.000
    C226    C    0.24223   0.47789   0.92803   1.000
    C227    C    0.23738   0.41675   0.98040   1.000
    C228    C    0.23879   0.32996   0.96959   1.000
    C229    C    0.39470   0.53331   0.83776   1.000
    C230    C    0.32440   0.49252   0.80994   1.000
    C231    C    0.25687   0.46897   0.84772   1.000
    C232    C    0.21060   0.43138   0.79330   1.000
    C233    C    0.13313   0.39436   0.80186   1.000
    C234    C    0.39805   0.62343   0.08924   1.000
    C235    C    0.45910   0.65623   0.03845   1.000
    C236    C    0.45749   0.73573   0.01628   1.000
    C237    C    0.51472   0.76464   0.96890   1.000
    C238    C    0.57279   0.63414   0.96070   1.000
    C239    C    0.51786   0.60622   0.00000   1.000
    C240    C    0.63851   0.74531   0.89361   1.000
    C241    C    0.57288   0.71406   0.94040   1.000
    C242    C    0.73779   0.86807   0.06063   1.000
    C243    C    0.73708   0.95006   0.03055   1.000
    C244    C    0.74393   0.02119   0.07118   1.000
    C245    C    0.73718   0.08176   0.01818   1.000
    C246    C    0.73850   0.16870   0.02782   1.000
    C247    C    0.89971   0.96489   0.15865   1.000
    C248    C    0.82917   0.00626   0.18774   1.000
    C249    C    0.76057   0.03046   0.15105   1.000
    C250    C    0.71434   0.06811   0.20624   1.000
    C251    C    0.63606   0.10588   0.19879   1.000
    C252    C    0.89442   0.87509   0.91258   1.000
    C253    C    0.95638   0.84241   0.96346   1.000
    C254    C    0.95584   0.76339   0.98707   1.000
    C255    C    0.01385   0.73434   0.03433   1.000
    C256    C    0.07108   0.86375   0.03935   1.000
    C257    C    0.01505   0.89180   0.98950   1.000
    C258    C    0.13839   0.75218   0.10781   1.000
    C259    C    0.07201   0.78424   0.06119   1.000
    C260    C    0.73693   0.13164   0.55867   1.000
    C261    C    0.73739   0.04910   0.53009   1.000
    C262    C    0.74229   0.97844   0.57214   1.000
    C263    C    0.73733   0.91724   0.51990   1.000
    C264    C    0.73879   0.83045   0.53097   1.000
    C265    C    0.89494   0.03372   0.66220   1.000
    C266    C    0.82458   0.99313   0.69020   1.000
    C267    C    0.75702   0.96960   0.65247   1.000
    C268    C    0.71067   0.93220   0.70690   1.000
    C269    C    0.63317   0.89525   0.69857   1.000
    C270    C    0.89802   0.12345   0.41074   1.000
    C271    C    0.95908   0.15622   0.46140   1.000
    C272    C    0.95734   0.23566   0.48369   1.000
    C273    C    0.01456   0.26456   0.53096   1.000
    C274    C    0.07293   0.13416   0.53903   1.000
    C275    C    0.01798   0.10626   0.48896   1.000
    C276    C    0.13847   0.24524   0.60621   1.000
    C277    C    0.07287   0.21402   0.55940   1.000
    C278    C    0.23775   0.36786   0.43990   1.000
    C279    C    0.23724   0.44988   0.46973   1.000
    C280    C    0.24394   0.52097   0.42883   1.000
    C281    C    0.23741   0.58161   0.48165   1.000
    C282    C    0.23868   0.66852   0.47165   1.000
    C283    C    0.39975   0.46482   0.34167   1.000
    C284    C    0.32920   0.50608   0.31236   1.000
    C285    C    0.26051   0.53015   0.34890   1.000
    C286    C    0.21428   0.56771   0.29360   1.000
    C287    C    0.13593   0.60534   0.30083   1.000
    C288    C    0.39430   0.37374   0.58792   1.000
    C289    C    0.45626   0.34146   0.53686   1.000
    C290    C    0.45607   0.26261   0.51291   1.000
    C291    C    0.51416   0.23419   0.46545   1.000
    C292    C    0.57072   0.36393   0.46090   1.000
    C293    C    0.51465   0.39134   0.51096   1.000
    C294    C    0.63855   0.25353   0.39169   1.000
    C295    C    0.57203   0.28459   0.43871   1.000
    C296    C    0.26874   0.96743   0.54360   1.000
    C297    C    0.26948   0.04799   0.54836   1.000
    C298    C    0.25210   0.06677   0.22649   1.000
    C299    C    0.18350   0.02923   0.23760   1.000
    C300    C    0.77157   0.53450   0.45661   1.000
    C301    C    0.77190   0.45401   0.45084   1.000
    C302    C    0.74738   0.43384   0.77228   1.000
    C303    C    0.67813   0.47170   0.75996   1.000
    C304    C    0.76819   0.46794   0.95631   1.000
    C305    C    0.76912   0.54851   0.95137   1.000
    C306    C    0.75208   0.56764   0.27321   1.000
    C307    C    0.68357   0.52993   0.26215   1.000
    C308    C    0.27194   0.03438   0.04315   1.000
    C309    C    0.27232   0.95392   0.04914   1.000
    C310    C    0.24740   0.93356   0.72775   1.000
    C311    C    0.17822   0.97159   0.73994   1.000
    C312    C    0.23178   0.53208   0.04370   1.000
    C313    C    0.23085   0.45152   0.04866   1.000
    C314    C    0.24786   0.43237   0.72682   1.000
    C315    C    0.31636   0.47008   0.73788   1.000
    C316    C    0.72806   0.96562   0.95682   1.000
    C317    C    0.72768   0.04608   0.95082   1.000
    C318    C    0.75258   0.06649   0.27220   1.000
    C319    C    0.82176   0.02848   0.26003   1.000
    C320    C    0.73129   0.03250   0.45636   1.000
    C321    C    0.73051   0.95194   0.45164   1.000
    C322    C    0.74788   0.93326   0.77352   1.000
    C323    C    0.81648   0.97081   0.76234   1.000
    C324    C    0.22854   0.46557   0.54342   1.000
    C325    C    0.22816   0.54607   0.54916   1.000
    C326    C    0.25261   0.56618   0.22770   1.000
    C327    C    0.32185   0.52829   0.24002   1.000
    C328    C    0.16380   0.83340   0.59681   1.000
    C329    C    0.09016   0.94327   0.61912   1.000
    C330    C    0.86027   0.67763   0.39054   1.000
    C331    C    0.81247   0.80034   0.36500   1.000
    C332    C    0.66581   0.66985   0.40361   1.000
    C333    C    0.59630   0.55899   0.38300   1.000
    C334    C    0.35776   0.82308   0.61175   1.000
    C335    C    0.31347   0.70020   0.63710   1.000
    C336    C    0.66392   0.33344   0.90318   1.000
    C337    C    0.59017   0.44328   0.88078   1.000
    C338    C    0.36021   0.17747   0.10947   1.000
    C339    C    0.31263   0.30016   0.13517   1.000
    C340    C    0.16554   0.16896   0.09654   1.000
    C341    C    0.09650   0.05748   0.11611   1.000
    C342    C    0.85880   0.32515   0.88995   1.000
    C343    C    0.81374   0.20314   0.86284   1.000
    C344    C    0.33609   0.66658   0.09679   1.000
    C345    C    0.40983   0.55674   0.11920   1.000
    C346    C    0.63979   0.82254   0.89050   1.000
    C347    C    0.68739   0.69985   0.86482   1.000
    C348    C    0.83447   0.83105   0.90343   1.000
    C349    C    0.90351   0.94254   0.88386   1.000
    C350    C    0.14120   0.67488   0.11005   1.000
    C351    C    0.18628   0.79689   0.13712   1.000
    C352    C    0.83604   0.16661   0.40316   1.000
    C353    C    0.90980   0.05681   0.38083   1.000
    C354    C    0.13967   0.32245   0.60941   1.000
    C355    C    0.18739   0.19972   0.63497   1.000
    C356    C    0.33401   0.33008   0.59600   1.000
    C357    C    0.40378   0.44073   0.61730   1.000
    C358    C    0.64148   0.17629   0.38804   1.000
    C359    C    0.68632   0.29909   0.36329   1.000
    O360    O    0.98462   0.07786   0.00000   1.000
    O361    O    0.51869   0.57568   0.00000   1.000
    O362    O    0.48848   0.63123   0.01923   1.000
    O363    O    0.54533   0.62018   0.98035   1.000
    O364    O    0.01430   0.13291   0.01826   1.000
    O365    O    0.95695   0.12225   0.98031   1.000
    O366    O    0.06696   0.25574   0.02315   1.000
    O367    O    0.04391   0.19712   0.02471   1.000
    O368    O    0.01517   0.25116   0.98928   1.000
    O369    O    0.43462   0.75505   0.02710   1.000
    O370    O    0.45829   0.69598   0.02737   1.000
    O371    O    0.48611   0.75019   0.99259   1.000
    O372    O    0.73784   0.12523   0.02300   1.000
    O373    O    0.74055   0.05147   0.04468   1.000
    O374    O    0.73243   0.06392   0.98450   1.000
    O375    O    0.76188   0.62666   0.02500   1.000
    O376    O    0.76015   0.55269   0.04579   1.000
    O377    O    0.76585   0.56588   0.98547   1.000
    O378    O    0.23685   0.31427   0.99635   1.000
    O379    O    0.26203   0.81601   0.99917   1.000
    O380    O    0.76479   0.17719   0.04304   1.000
    O381    O    0.71341   0.17892   0.04434   1.000
    O382    O    0.73798   0.18400   0.00078   1.000
    O383    O    0.76259   0.41014   0.04455   1.000
    O384    O    0.76003   0.48676   0.05107   1.000
    O385    O    0.76527   0.45967   0.99322   1.000
    O386    O    0.73418   0.67924   0.04452   1.000
    O387    O    0.78543   0.67916   0.04824   1.000
    O388    O    0.76312   0.68574   0.00368   1.000
    O389    O    0.73743   0.90906   0.04559   1.000
    O390    O    0.74050   0.98562   0.05087   1.000
    O391    O    0.73257   0.95784   0.99369   1.000
    O392    O    0.48478   0.20425   0.03867   1.000
    O393    O    0.45621   0.26066   0.04531   1.000
    O394    O    0.51391   0.24983   0.00738   1.000
    O395    O    0.01472   0.70338   0.04253   1.000
    O396    O    0.04293   0.75929   0.04776   1.000
    O397    O    0.98484   0.74886   0.01070   1.000
    O398    O    0.07462   0.14126   0.06195   1.000
    O399    O    0.78808   0.35236   0.04817   1.000
    O400    O    0.71348   0.85133   0.04917   1.000
    O401    O    0.42857   0.63983   0.06385   1.000
    O402    O    0.42717   0.32590   0.04942   1.000
    O403    O    0.40531   0.38579   0.05081   1.000
    O404    O    0.45467   0.37982   0.01420   1.000
    O405    O    0.09305   0.88343   0.05019   1.000
    O406    O    0.07154   0.82399   0.05027   1.000
    O407    O    0.04306   0.87778   0.01443   1.000
    O408    O    0.73670   0.35317   0.05024   1.000
    O409    O    0.27213   0.99415   0.04615   1.000
    O410    O    0.26906   0.07707   0.08529   1.000
    O411    O    0.26744   0.04217   0.00629   1.000
    O412    O    0.23132   0.49180   0.04618   1.000
    O413    O    0.23440   0.57448   0.08574   1.000
    O414    O    0.23470   0.54035   0.00679   1.000
    O415    O    0.76474   0.85228   0.05317   1.000
    O416    O    0.23402   0.43741   0.07385   1.000
    O417    O    0.23411   0.43414   0.01453   1.000
    O418    O    0.27086   0.94048   0.07471   1.000
    O419    O    0.26758   0.93609   0.01546   1.000
    O420    O    0.76414   0.36899   0.08967   1.000
    O421    O    0.39431   0.27032   0.08297   1.000
    O422    O    0.73532   0.86870   0.09126   1.000
    O423    O    0.10520   0.76821   0.08450   1.000
    O424    O    0.75225   0.02582   0.11112   1.000
    O425    O    0.75040   0.52658   0.11216   1.000
    O426    O    0.13557   0.14694   0.09197   1.000
    O427    O    0.10105   0.09120   0.10175   1.000
    O428    O    0.36707   0.64501   0.09302   1.000
    O429    O    0.40394   0.59009   0.10422   1.000
    O430    O    0.21586   0.14436   0.11199   1.000
    O431    O    0.28655   0.64173   0.11228   1.000
    O432    O    0.89598   0.95780   0.12895   1.000
    O433    O    0.60890   0.45872   0.13272   1.000
    O434    O    0.36086   0.21608   0.10792   1.000
    O435    O    0.33706   0.27743   0.12077   1.000
    O436    O    0.13979   0.71353   0.10893   1.000
    O437    O    0.16233   0.77454   0.12247   1.000
    O438    O    0.31319   0.14862   0.11845   1.000
    O439    O    0.18911   0.64588   0.11891   1.000
    O440    O    0.25914   0.09327   0.17696   1.000
    O441    O    0.24481   0.59153   0.17774   1.000
    O442    O    0.79487   0.01836   0.16940   1.000
    O443    O    0.73745   0.04928   0.17865   1.000
    O444    O    0.88294   0.59193   0.17498   1.000
    O445    O    0.70931   0.51926   0.17120   1.000
    O446    O    0.76620   0.54984   0.17916   1.000
    O447    O    0.61928   0.09134   0.17677   1.000
    O448    O    0.92570   0.98245   0.16118   1.000
    O449    O    0.86444   0.98558   0.17320   1.000
    O450    O    0.90532   0.93715   0.17383   1.000
    O451    O    0.57911   0.48556   0.16441   1.000
    O452    O    0.64040   0.48708   0.17618   1.000
    O453    O    0.60000   0.43950   0.17818   1.000
    O454    O    0.63829   0.13728   0.19130   1.000
    O455    O    0.86394   0.63744   0.19217   1.000
    O456    O    0.82547   0.01737   0.22389   1.000
    O457    O    0.67956   0.51871   0.22612   1.000
    O458    O    0.16359   0.03075   0.21495   1.000
    O459    O    0.34207   0.52968   0.21768   1.000
    O460    O    0.82807   0.58715   0.20208   1.000
    O461    O    0.88394   0.60277   0.22395   1.000
    O462    O    0.67520   0.08700   0.20252   1.000
    O463    O    0.61996   0.10456   0.22526   1.000
    O464    O    0.77071   0.56814   0.23961   1.000
    O465    O    0.73346   0.06730   0.23922   1.000
    O466    O    0.21780   0.04800   0.23205   1.000
    O467    O    0.27070   0.06730   0.25975   1.000
    O468    O    0.28723   0.54724   0.23386   1.000
    O469    O    0.23344   0.56694   0.26065   1.000
    O470    O    0.17945   0.01806   0.27330   1.000
    O471    O    0.32552   0.51719   0.27619   1.000
    O472    O    0.11982   0.60383   0.27437   1.000
    O473    O    0.38392   0.10191   0.27566   1.000
    O474    O    0.78717   0.04748   0.26612   1.000
    O475    O    0.84197   0.02984   0.28239   1.000
    O476    O    0.71783   0.54879   0.26768   1.000
    O477    O    0.66359   0.53161   0.28477   1.000
    O478    O    0.74477   0.09180   0.32214   1.000
    O479    O    0.75912   0.59382   0.32281   1.000
    O480    O    0.32806   0.08629   0.29723   1.000
    O481    O    0.26613   0.04911   0.32027   1.000
    O482    O    0.17510   0.58653   0.29722   1.000
    O483    O    0.23739   0.54893   0.32125   1.000
    O484    O    0.13809   0.63678   0.30812   1.000
    O485    O    0.11918   0.59086   0.32292   1.000
    O486    O    0.36398   0.13654   0.30743   1.000
    O487    O    0.38296   0.09099   0.32464   1.000
    O488    O    0.09962   0.93919   0.32185   1.000
    O489    O    0.14021   0.98660   0.32339   1.000
    O490    O    0.20918   0.01865   0.32827   1.000
    O491    O    0.40534   0.43699   0.32669   1.000
    O492    O    0.36448   0.48545   0.32702   1.000
    O493    O    0.29485   0.51812   0.33063   1.000
    O494    O    0.07895   0.98315   0.33571   1.000
    O495    O    0.42575   0.48308   0.33899   1.000
    O496    O    0.10872   0.95823   0.36730   1.000
    O497    O    0.39604   0.45789   0.37143   1.000
    O498    O    0.25032   0.02597   0.38770   1.000
    O499    O    0.25223   0.52556   0.38887   1.000
    O500    O    0.66243   0.27631   0.37749   1.000
    O501    O    0.83695   0.77759   0.37937   1.000
    O502    O    0.68922   0.14670   0.38006   1.000
    O503    O    0.78650   0.14186   0.38762   1.000
    O504    O    0.73413   0.07481   0.41422   1.000
    O505    O    0.81322   0.64882   0.38148   1.000
    O506    O    0.71599   0.64492   0.38801   1.000
    O507    O    0.76887   0.57725   0.41451   1.000
    O508    O    0.23535   0.36848   0.40927   1.000
    O509    O    0.26433   0.86841   0.41054   1.000
    O510    O    0.90391   0.09013   0.39579   1.000
    O511    O    0.60096   0.59252   0.39760   1.000
    O512    O    0.64002   0.21491   0.38987   1.000
    O513    O    0.86084   0.71624   0.39214   1.000
    O514    O    0.60529   0.26906   0.41520   1.000
    O515    O    0.89422   0.77046   0.41715   1.000
    O516    O    0.77019   0.44052   0.42533   1.000
    O517    O    0.73360   0.93782   0.42649   1.000
    O518    O    0.86703   0.14503   0.40695   1.000
    O519    O    0.63572   0.64795   0.40791   1.000
    O520    O    0.92855   0.13984   0.43607   1.000
    O521    O    0.57461   0.64213   0.43777   1.000
    O522    O    0.26016   0.98620   0.44883   1.000
    O523    O    0.26016   0.05213   0.45399   1.000
    O524    O    0.24059   0.48542   0.44928   1.000
    O525    O    0.24067   0.55129   0.45524   1.000
    O526    O    0.28549   0.17867   0.45144   1.000
    O527    O    0.90500   0.88584   0.44942   1.000
    O528    O    0.21365   0.67867   0.45499   1.000
    O529    O    0.57138   0.32426   0.44981   1.000
    O530    O    0.54310   0.25939   0.45208   1.000
    O531    O    0.59260   0.38378   0.45014   1.000
    O532    O    0.26462   0.35198   0.44749   1.000
    O533    O    0.21335   0.35122   0.45135   1.000
    O534    O    0.23749   0.40887   0.45482   1.000
    O535    O    0.23422   0.17864   0.45476   1.000
    O536    O    0.92698   0.82600   0.45075   1.000
    O537    O    0.95617   0.76081   0.45478   1.000
    O538    O    0.23696   0.85264   0.45010   1.000
    O539    O    0.28834   0.85180   0.45208   1.000
    O540    O    0.26285   0.90959   0.45554   1.000
    O541    O    0.26503   0.67703   0.45652   1.000
    O542    O    0.51516   0.20329   0.45711   1.000
    O543    O    0.77173   0.49425   0.45373   1.000
    O544    O    0.76725   0.43622   0.48458   1.000
    O545    O    0.73090   0.99222   0.45400   1.000
    O546    O    0.73392   0.93459   0.48577   1.000
    O547    O    0.98487   0.70445   0.46135   1.000
    O548    O    0.73434   0.04080   0.49323   1.000
    O549    O    0.76719   0.54233   0.49346   1.000
    O550    O    0.54269   0.37763   0.48593   1.000
    O551    O    0.95441   0.87988   0.48598   1.000
    O552    O    0.95821   0.19594   0.47255   1.000
    O553    O    0.98853   0.13124   0.47518   1.000
    O554    O    0.93442   0.25496   0.47291   1.000
    O555    O    0.54358   0.69764   0.47530   1.000
    O556    O    0.51443   0.63321   0.47628   1.000
    O557    O    0.48512   0.24840   0.48918   1.000
    O558    O    0.56620   0.75644   0.47711   1.000
    O559    O    0.01392   0.74998   0.49264   1.000
    O560    O    0.26186   0.12611   0.47460   1.000
    O561    O    0.26281   0.18520   0.49580   1.000
    O562    O    0.48516   0.57792   0.47932   1.000
    O563    O    0.23289   0.45772   0.50658   1.000
    O564    O    0.26568   0.95915   0.50670   1.000
    O565    O    0.01886   0.07574   0.47970   1.000
    O566    O    0.23804   0.62507   0.47665   1.000
    O567    O    0.23799   0.68388   0.49862   1.000
    O568    O    0.76184   0.31618   0.50133   1.000
    O569    O    0.73707   0.81475   0.50425   1.000
    O570    O    0.26605   0.06535   0.51424   1.000
    O571    O    0.23278   0.56384   0.51541   1.000
    O572    O    0.98595   0.25011   0.50733   1.000
    O573    O    0.51446   0.75122   0.51097   1.000
    O574    O    0.04546   0.12021   0.51400   1.000
    O575    O    0.45718   0.62186   0.51420   1.000
    O576    O    0.51484   0.42163   0.52087   1.000
    O577    O    0.48545   0.36640   0.52391   1.000
    O578    O    0.98101   0.92434   0.52029   1.000
    O579    O    0.01133   0.86884   0.52476   1.000
    O580    O    0.43339   0.24330   0.52309   1.000
    O581    O    0.45616   0.30204   0.52489   1.000
    O582    O    0.06545   0.74512   0.52706   1.000
    O583    O    0.04166   0.80414   0.52739   1.000
    O584    O    0.76195   0.37498   0.52332   1.000
    O585    O    0.75933   0.44875   0.54475   1.000
    O586    O    0.73806   0.87384   0.52544   1.000
    O587    O    0.73981   0.94784   0.54602   1.000
    O588    O    0.73500   0.32304   0.54354   1.000
    O589    O    0.78638   0.32134   0.54487   1.000
    O590    O    0.73716   0.09037   0.54438   1.000
    O591    O    0.73984   0.01377   0.55112   1.000
    O592    O    0.76256   0.59117   0.54523   1.000
    O593    O    0.75944   0.51461   0.55073   1.000
    O594    O    0.01501   0.29565   0.53860   1.000
    O595    O    0.04371   0.23929   0.54518   1.000
    O596    O    0.76569   0.82130   0.54528   1.000
    O597    O    0.71442   0.82131   0.54859   1.000
    O598    O    0.48427   0.79627   0.54299   1.000
    O599    O    0.45645   0.74012   0.54802   1.000
    O600    O    0.42528   0.35760   0.56239   1.000
    O601    O    0.71164   0.14814   0.54790   1.000
    O602    O    0.78669   0.64882   0.54869   1.000
    O603    O    0.07132   0.86023   0.56385   1.000
    O604    O    0.07290   0.17409   0.54922   1.000
    O605    O    0.09488   0.11425   0.55055   1.000
    O606    O    0.40727   0.61559   0.54995   1.000
    O607    O    0.42833   0.67519   0.55028   1.000
    O608    O    0.76303   0.14735   0.54980   1.000
    O609    O    0.22835   0.50582   0.54629   1.000
    O610    O    0.23115   0.42281   0.58552   1.000
    O611    O    0.26911   0.00771   0.54598   1.000
    O612    O    0.26580   0.92516   0.58530   1.000
    O613    O    0.73542   0.64804   0.55258   1.000
    O614    O    0.26640   0.06209   0.57353   1.000
    O615    O    0.22995   0.55957   0.57466   1.000
    O616    O    0.73573   0.13157   0.58937   1.000
    O617    O    0.10567   0.22963   0.58281   1.000
    O618    O    0.76471   0.63155   0.59078   1.000
    O619    O    0.39427   0.73035   0.58489   1.000
    O620    O    0.74777   0.47446   0.61111   1.000
    O621    O    0.74965   0.97402   0.61231   1.000
    O622    O    0.36416   0.35191   0.59196   1.000
    O623    O    0.39904   0.40723   0.60261   1.000
    O624    O    0.13283   0.85500   0.59301   1.000
    O625    O    0.09601   0.90993   0.60416   1.000
    O626    O    0.28389   0.35507   0.61181   1.000
    O627    O    0.21333   0.85814   0.61191   1.000
    O628    O    0.60393   0.54206   0.62855   1.000
    O629    O    0.89125   0.04178   0.63268   1.000
    O630    O    0.13907   0.28384   0.60781   1.000
    O631    O    0.16293   0.22248   0.62059   1.000
    O632    O    0.35937   0.78446   0.61008   1.000
    O633    O    0.33722   0.72302   0.62275   1.000
    O634    O    0.18671   0.35125   0.61852   1.000
    O635    O    0.31032   0.85298   0.61938   1.000
    O636    O    0.25513   0.90822   0.67738   1.000
    O637    O    0.24081   0.40621   0.67722   1.000
    O638    O    0.70513   0.48188   0.66934   1.000
    O639    O    0.76259   0.45108   0.67872   1.000
    O640    O    0.61703   0.90900   0.67534   1.000
    O641    O    0.79080   0.98136   0.67134   1.000
    O642    O    0.73385   0.95090   0.67969   1.000
    O643    O    0.88082   0.40918   0.67704   1.000
    O644    O    0.57423   0.51687   0.66098   1.000
    O645    O    0.63550   0.51452   0.67296   1.000
    O646    O    0.59461   0.56296   0.67328   1.000
    O647    O    0.92102   0.01474   0.66428   1.000
    O648    O    0.85976   0.01342   0.67620   1.000
    O649    O    0.90034   0.06084   0.67813   1.000
    O650    O    0.86191   0.36325   0.69184   1.000
    O651    O    0.63600   0.86347   0.69265   1.000
    O652    O    0.67446   0.48280   0.72379   1.000
    O653    O    0.82053   0.98197   0.72627   1.000
    O654    O    0.33637   0.46834   0.71529   1.000
    O655    O    0.15801   0.97024   0.71759   1.000
    O656    O    0.67192   0.91372   0.70274   1.000
    O657    O    0.61605   0.89815   0.72437   1.000
    O658    O    0.82489   0.41349   0.70276   1.000
    O659    O    0.88016   0.39617   0.72561   1.000
    O660    O    0.76655   0.43307   0.73933   1.000
    O661    O    0.72928   0.93273   0.74021   1.000
    O662    O    0.28211   0.45122   0.73235   1.000
    O663    O    0.22923   0.43188   0.76006   1.000
    O664    O    0.21281   0.95257   0.73385   1.000
    O665    O    0.26652   0.93273   0.76073   1.000
    O666    O    0.32038   0.48130   0.77391   1.000
    O667    O    0.17453   0.98269   0.77607   1.000
    O668    O    0.38001   0.89544   0.77457   1.000
    O669    O    0.11599   0.39726   0.77608   1.000
    O670    O    0.71276   0.45277   0.76612   1.000
    O671    O    0.65791   0.47031   0.78231   1.000
    O672    O    0.78218   0.95204   0.76793   1.000
    O673    O    0.83640   0.96929   0.78502   1.000
    O674    O    0.75519   0.40849   0.82225   1.000
    O675    O    0.74086   0.90676   0.82304   1.000
    O676    O    0.17186   0.41287   0.79758   1.000
    O677    O    0.23373   0.45018   0.82051   1.000
    O678    O    0.32478   0.91300   0.79742   1.000
    O679    O    0.26254   0.95074   0.82131   1.000
    O680    O    0.36166   0.86270   0.80861   1.000
    O681    O    0.38070   0.90862   0.82316   1.000
    O682    O    0.13598   0.36258   0.80784   1.000
    O683    O    0.11699   0.40809   0.82505   1.000
    O684    O    0.39994   0.56050   0.82184   1.000
    O685    O    0.35955   0.51291   0.82385   1.000
    O686    O    0.29063   0.48075   0.82883   1.000
    O687    O    0.09471   0.06292   0.82614   1.000
    O688    O    0.13558   0.01449   0.82676   1.000
    O689    O    0.20514   0.98169   0.83056   1.000
    O690    O    0.42084   0.51444   0.83561   1.000
    O691    O    0.07432   0.01691   0.83880   1.000
    O692    O    0.39107   0.54127   0.86730   1.000
    O693    O    0.10404   0.04227   0.87103   1.000
    O694    O    0.24955   0.47343   0.88788   1.000
    O695    O    0.24777   0.97420   0.88881   1.000
    O696    O    0.83768   0.22550   0.87751   1.000
    O697    O    0.66295   0.72258   0.87922   1.000
    O698    O    0.81090   0.35415   0.88108   1.000
    O699    O    0.71345   0.35829   0.88770   1.000
    O700    O    0.76559   0.42554   0.91426   1.000
    O701    O    0.68681   0.85139   0.88153   1.000
    O702    O    0.78415   0.85565   0.88800   1.000
    O703    O    0.73095   0.92293   0.91469   1.000
    O704    O    0.26469   0.13132   0.90873   1.000
    O705    O    0.23584   0.63101   0.91034   1.000
    O706    O    0.59606   0.40993   0.89576   1.000
    O707    O    0.89896   0.90881   0.89822   1.000
    O708    O    0.86022   0.28650   0.89106   1.000
    O709    O    0.63915   0.78392   0.89206   1.000
    O710    O    0.89481   0.23182   0.91548   1.000
    O711    O    0.60569   0.72969   0.91701   1.000
    O712    O    0.72913   0.05952   0.92525   1.000
    O713    O    0.76596   0.56261   0.92619   1.000
    O714    O    0.63294   0.35501   0.90696   1.000
    O715    O    0.86444   0.85307   0.90801   1.000
    O716    O    0.57143   0.36018   0.93613   1.000
    O717    O    0.92540   0.85875   0.93802   1.000
    O718    O    0.23992   0.51325   0.94896   1.000
    O719    O    0.23980   0.44732   0.95422   1.000
    O720    O    0.25951   0.01440   0.94906   1.000
    O721    O    0.25946   0.94854   0.95524   1.000
    O722    O    0.21454   0.32085   0.95175   1.000
    O723    O    0.59469   0.61421   0.94915   1.000
    O724    O    0.92847   0.17603   0.94970   1.000
    O725    O    0.95708   0.24074   0.95222   1.000
    O726    O    0.90696   0.11659   0.94978   1.000
    O727    O    0.28661   0.82109   0.95562   1.000
    O728    O    0.23528   0.14774   0.94682   1.000
    O729    O    0.28653   0.14868   0.95078   1.000
    O730    O    0.26258   0.09095   0.95439   1.000
    O731    O    0.57283   0.67410   0.95055   1.000
    O732    O    0.54380   0.73935   0.95465   1.000
    O733    O    0.26327   0.64684   0.94952   1.000
    O734    O    0.21189   0.64765   0.95182   1.000
    O735    O    0.23738   0.58987   0.95546   1.000
    O736    O    0.26578   0.32078   0.95551   1.000
    O737    O    0.23523   0.82282   0.95690   1.000
    O738    O    0.98529   0.29664   0.95746   1.000
    O739    O    0.72787   0.00585   0.95382   1.000
    O740    O    0.76866   0.50822   0.95384   1.000
    O741    O    0.51524   0.79576   0.96131   1.000
    O742    O    0.54171   0.30403   0.97261   1.000
    O743    O    0.51152   0.36878   0.97533   1.000
    O744    O    0.56539   0.24497   0.97289   1.000
    O745    O    0.95611   0.80290   0.97527   1.000
    O746    O    0.98571   0.86711   0.97648   1.000
    O747    O    0.93306   0.74428   0.97683   1.000
    O748    O    0.23808   0.37336   0.97500   1.000
    O749    O    0.01540   0.92216   0.97973   1.000
    O750    O    0.48131   0.42432   0.97987   1.000
    O751    O    0.26217   0.87478   0.97695   1.000
loop_
    _geom_bond_atom_site_label_1
    _geom_bond_atom_site_label_2
    _geom_bond_distance
    _geom_bond_site_symmetry_2
    _ccdc_geom_bond_type
    C79    O360      0.51456      .   S
    C221   O360      0.51456      .   S
    C97    O361      0.51746      .   S
    C239   O361      0.51746      .   S
    C239   O362      0.74028      .   S
    C235   O362      0.74028      .   S
    C239   O363      0.63731  1_554   S
    C238   O363      0.63731      .   S
    C221   O364      0.73714  1_655   S
    C217   O364      0.73714      .   S
    C221   O365      0.64014  1_554   S
    C220   O365      0.64014      .   S
    C218   O366      0.54425      .   S
    C76    O366      0.54425      .   S
    C218   O367      0.70180      .   S
    C217   O367      0.70180      .   S
    C218   O368      0.69622  1_554   S
    C219   O368      0.69622  1_655   S
    C236   O369      0.54431      .   S
    C94    O369      0.54431      .   S
    C236   O370      0.70182      .   S
    C235   O370      0.70182      .   S
    C236   O371      0.69664  1_554   S
    C237   O371      0.69664      .   S
    C245   O372      0.74194      .   S
    C246   O372      0.74194      .   S
    C245   O373      0.69946      .   S
    C244   O373      0.69946      .   S
    C245   O374      0.67880  1_554   S
    C317   O374      0.67880      .   S
    C191   O375      0.74181      .   S
    C192   O375      0.74181      .   S
    C191   O376      0.69947      .   S
    C190   O376      0.69947      .   S
    C191   O377      0.67858  1_554   S
    C305   O377      0.67858      .   S
    C85    O378      0.54764  1_554   S
    C228   O378      0.54764      .   S
    C67    O379      0.54784  1_554   S
    C210   O379      0.54784      .   S
    C246   O380      0.54936      .   S
    C104   O380      0.54936      .   S
    C246   O381      0.54951      .   S
    C105   O381      0.54951      .   S
    C246   O382      0.54776      .   S
    C103   O382      0.54776  1_556   S
    C189   O383      0.74475      .   S
    C188   O383      0.74475      .   S
    C189   O384      0.70721      .   S
    C190   O384      0.70721      .   S
    C189   O385      0.67557  1_554   S
    C304   O385      0.67557      .   S
    C192   O386      0.54951      .   S
    C50    O386      0.54951      .   S
    C192   O387      0.54914      .   S
    C51    O387      0.54914      .   S
    C192   O388      0.54761      .   S
    C49    O388      0.54761  1_556   S
    C243   O389      0.74441      .   S
    C242   O389      0.74441      .   S
    C243   O390      0.70693      .   S
    C244   O390      0.70693  1_545   S
    C243   O391      0.67536  1_554   S
    C316   O391      0.67536      .   S
    C201   O392      0.54459      .   S
    C59    O392      0.54459      .   S
    C201   O393      0.70272      .   S
    C205   O393      0.70272      .   S
    C201   O394      0.69649      .   S
    C200   O394      0.69649  1_556   S
    C255   O395      0.54454      .   S
    C113   O395      0.54454      .   S
    C255   O396      0.70269      .   S
    C259   O396      0.70269      .   S
    C255   O397      0.69621  1_455   S
    C254   O397      0.69621  1_556   S
    C217   O398      0.75070      .   S
    C216   O398      0.75070      .   S
    C47    O399      0.54922      .   S
    C188   O399      0.54922      .   S
    C101   O400      0.54898      .   S
    C242   O400      0.54898      .   S
    C235   O401      0.75063      .   S
    C234   O401      0.75063      .   S
    C202   O402      0.70081      .   S
    C205   O402      0.70081      .   S
    C202   O403      0.54363      .   S
    C60    O403      0.54363      .   S
    C202   O404      0.69520      .   S
    C203   O404      0.69520  1_556   S
    C256   O405      0.54402      .   S
    C114   O405      0.54402      .   S
    C256   O406      0.70106      .   S
    C259   O406      0.70106      .   S
    C256   O407      0.69576      .   S
    C257   O407      0.69576  1_556   S
    C46    O408      0.54913      .   S
    C188   O408      0.54913      .   S
    C308   O409      0.68375  1_545   S
    C309   O409      0.68375      .   S
    C308   O410      1.04501      .   S
    C3     O410      1.04501      .   S
    C308   O411      0.67537      .   S
    C207   O411      0.67537  1_556   S
    C312   O412      0.68416      .   S
    C313   O412      0.68416      .   S
    C312   O413      1.04097      .   S
    C4     O413      1.04097      .   S
    C312   O414      0.67555      .   S
    C225   O414      0.67555  1_556   S
    C100   O415      0.54922      .   S
    C242   O415      0.54922      .   S
    C313   O416      0.51153      .   S
    C80    O416      0.51153      .   S
    C313   O417      0.67908      .   S
    C227   O417      0.67908  1_556   S
    C309   O418      0.51069      .   S
    C62    O418      0.51069      .   S
    C309   O419      0.67875      .   S
    C209   O419      0.67875  1_556   S
    C188   O420      0.54847      .   S
    C48    O420      0.54847      .   S
    C205   O421      0.75402      .   S
    C204   O421      0.75402      .   S
    C242   O422      0.54851      .   S
    C102   O422      0.54851      .   S
    C259   O423      0.75460      .   S
    C258   O423      0.75460      .   S
    C244   O424      0.73178      .   S
    C249   O424      0.73178      .   S
    C190   O425      0.73173      .   S
    C195   O425      0.73173      .   S
    C216   O426      0.64684      .   S
    C340   O426      0.64684      .   S
    C216   O427      0.63195      .   S
    C341   O427      0.63195      .   S
    C234   O428      0.64642      .   S
    C344   O428      0.64642      .   S
    C234   O429      0.63177      .   S
    C345   O429      0.63177      .   S
    C340   O430      0.99563      .   S
    C3     O430      0.99563      .   S
    C344   O431      0.99640      .   S
    C4     O431      0.99640      .   S
    C108   O432      0.54780      .   S
    C247   O432      0.54780      .   S
    C54    O433      0.54792      .   S
    C193   O433      0.54792      .   S
    C204   O434      0.65519      .   S
    C338   O434      0.65519      .   S
    C204   O435      0.62246      .   S
    C339   O435      0.62246      .   S
    C258   O436      0.65537      .   S
    C350   O436      0.65537      .   S
    C258   O437      0.62211      .   S
    C351   O437      0.62211      .   S
    C338   O438      0.96574      .   S
    C3     O438      0.96574      .   S
    C350   O439      0.96776      .   S
    C4     O439      0.96776      .   S
    C3     O440      0.99944      .   S
    C298   O440      0.99944      .   S
    C4     O441      0.99791      .   S
    C326   O441      0.99791      .   S
    C249   O442      0.70368      .   S
    C248   O442      0.70368      .   S
    C249   O443      0.70709      .   S
    C250   O443      0.70709      .   S
    C56    O444      0.54883      .   S
    C197   O444      0.54883      .   S
    C195   O445      0.70389      .   S
    C194   O445      0.70389      .   S
    C195   O446      0.70292      .   S
    C196   O446      0.70292      .   S
    C110   O447      0.54892      .   S
    C251   O447      0.54892      .   S
    C247   O448      0.54317      .   S
    C107   O448      0.54317  1_545   S
    C247   O449      0.74433      .   S
    C248   O449      0.74433  1_545   S
    C247   O450      0.54966      .   S
    C106   O450      0.54966      .   S
    C193   O451      0.55016      .   S
    C53    O451      0.55016      .   S
    C193   O452      0.74450      .   S
    C194   O452      0.74450      .   S
    C193   O453      0.54970      .   S
    C52    O453      0.54970      .   S
    C111   O454      0.55037      .   S
    C251   O454      0.55037      .   S
    C57    O455      0.55037      .   S
    C197   O455      0.55037      .   S
    C248   O456      0.67517      .   S
    C319   O456      0.67517      .   S
    C194   O457      0.67483      .   S
    C307   O457      0.67483      .   S
    C9     O458      0.53077      .   S
    C299   O458      0.53077      .   S
    C135   O459      0.53045      .   S
    C327   O459      0.53045      .   S
    C197   O460      0.74497      .   S
    C196   O460      0.74497      .   S
    C197   O461      0.54882      .   S
    C55    O461      0.54882      .   S
    C251   O462      0.74542      .   S
    C250   O462      0.74542      .   S
    C251   O463      0.54867      .   S
    C109   O463      0.54867      .   S
    C196   O464      0.68057      .   S
    C306   O464      0.68057      .   S
    C250   O465      0.67475      .   S
    C318   O465      0.67475      .   S
    C298   O466      0.68250      .   S
    C299   O466      0.68250      .   S
    C298   O467      0.67488      .   S
    C160   O467      0.67488      .   S
    C326   O468      0.68238      .   S
    C327   O468      0.68238      .   S
    C326   O469      0.67470      .   S
    C286   O469      0.67470      .   S
    C299   O470      0.66860      .   S
    C158   O470      0.66860      .   S
    C327   O471      0.67513      .   S
    C284   O471      0.67513      .   S
    C145   O472      0.54879      .   S
    C287   O472      0.54879      .   S
    C19    O473      0.54880      .   S
    C161   O473      0.54880      .   S
    C319   O474      0.68239      .   S
    C318   O474      0.68239      .   S
    C319   O475      0.53044      .   S
    C99    O475      0.53044      .   S
    C307   O476      0.68253      .   S
    C306   O476      0.68253      .   S
    C307   O477      0.53122      .   S
    C45    O477      0.53122      .   S
    C318   O478      0.99813      .   S
    C6     O478      0.99813      .   S
    C306   O479      0.99904      .   S
    C1     O479      0.99904      .   S
    C160   O480      0.74557      .   S
    C161   O480      0.74557      .   S
    C160   O481      0.70732      .   S
    C159   O481      0.70732      .   S
    C286   O482      0.74542      .   S
    C287   O482      0.74542      .   S
    C286   O483      0.70690      .   S
    C285   O483      0.70690      .   S
    C287   O484      0.55038      .   S
    C147   O484      0.55038      .   S
    C287   O485      0.54850      .   S
    C146   O485      0.54850      .   S
    C161   O486      0.55037      .   S
    C21    O486      0.55037      .   S
    C161   O487      0.54882      .   S
    C20    O487      0.54882      .   S
    C16    O488      0.54972      .   S
    C157   O488      0.54972      .   S
    C158   O489      0.74682  1_545   S
    C157   O489      0.74682      .   S
    C158   O490      0.70738      .   S
    C159   O490      0.70738      .   S
    C142   O491      0.54976      .   S
    C283   O491      0.54976      .   S
    C284   O492      0.74441      .   S
    C283   O492      0.74441      .   S
    C284   O493      0.70361      .   S
    C285   O493      0.70361      .   S
    C17    O494      0.53028  1_545   S
    C157   O494      0.53028      .   S
    C143   O495      0.55011      .   S
    C283   O495      0.55011      .   S
    C157   O496      0.54790      .   S
    C18    O496      0.54790      .   S
    C283   O497      0.54786      .   S
    C144   O497      0.54786      .   S
    C159   O498      0.73182      .   S
    C154   O498      0.73182      .   S
    C285   O499      0.73193      .   S
    C280   O499      0.73193      .   S
    C359   O500      0.62216      .   S
    C294   O500      0.62216      .   S
    C331   O501      0.62247      .   S
    C168   O501      0.62247      .   S
    C6     O502      0.96806      .   S
    C358   O502      0.96806      .   S
    C6     O503      0.99622      .   S
    C352   O503      0.99622      .   S
    C6     O504      1.04027      .   S
    C320   O504      1.04027      .   S
    C1     O505      0.96631      .   S
    C330   O505      0.96631      .   S
    C1     O506      0.99690      .   S
    C332   O506      0.99690      .   S
    C1     O507      1.04388      .   S
    C300   O507      1.04388      .   S
    C138   O508      0.54847      .   S
    C278   O508      0.54847      .   S
    C12    O509      0.54914      .   S
    C152   O509      0.54914      .   S
    C353   O510      0.63177      .   S
    C270   O510      0.63177      .   S
    C333   O511      0.63159      .   S
    C180   O511      0.63159      .   S
    C358   O512      0.65540      .   S
    C294   O512      0.65540      .   S
    C330   O513      0.65513      .   S
    C168   O513      0.65513      .   S
    C294   O514      0.75498      .   S
    C295   O514      0.75498      .   S
    C168   O515      0.75412      .   S
    C169   O515      0.75412      .   S
    C26    O516      0.51080      .   S
    C301   O516      0.51080      .   S
    C116   O517      0.51152      .   S
    C321   O517      0.51152      .   S
    C352   O518      0.64647      .   S
    C270   O518      0.64647      .   S
    C332   O519      0.64656      .   S
    C180   O519      0.64656      .   S
    C270   O520      0.75028      .   S
    C271   O520      0.75028      .   S
    C180   O521      0.75137      .   S
    C181   O521      0.75137      .   S
    C154   O522      0.70662  1_545   S
    C153   O522      0.70662      .   S
    C154   O523      0.69952      .   S
    C155   O523      0.69952      .   S
    C280   O524      0.70703      .   S
    C279   O524      0.70703      .   S
    C280   O525      0.69946      .   S
    C281   O525      0.69946      .   S
    C15    O526      0.54915      .   S
    C156   O526      0.54915      .   S
    C24    O527      0.54359      .   S
    C166   O527      0.54359      .   S
    C141   O528      0.54948      .   S
    C282   O528      0.54948      .   S
    C295   O529      0.70098      .   S
    C292   O529      0.70098      .   S
    C295   O530      0.70275      .   S
    C291   O530      0.70275      .   S
    C150   O531      0.54387      .   S
    C292   O531      0.54387      .   S
    C278   O532      0.54919      .   S
    C136   O532      0.54919      .   S
    C278   O533      0.54896      .   S
    C137   O533      0.54896      .   S
    C278   O534      0.74443      .   S
    C279   O534      0.74443      .   S
    C14    O535      0.54945      .   S
    C156   O535      0.54945      .   S
    C169   O536      0.70084      .   S
    C166   O536      0.70084      .   S
    C169   O537      0.70271      .   S
    C165   O537      0.70271      .   S
    C152   O538      0.54916      .   S
    C10    O538      0.54916      .   S
    C152   O539      0.54923      .   S
    C11    O539      0.54923      .   S
    C152   O540      0.74447      .   S
    C153   O540      0.74447      .   S
    C140   O541      0.54937      .   S
    C282   O541      0.54937      .   S
    C149   O542      0.54461      .   S
    C291   O542      0.54461      .   S
    C301   O543      0.68399      .   S
    C300   O543      0.68399      .   S
    C301   O544      0.67860      .   S
    C173   O544      0.67860      .   S
    C321   O545      0.68407      .   S
    C320   O545      0.68407  1_545   S
    C321   O546      0.67844      .   S
    C263   O546      0.67844      .   S
    C23    O547      0.54459      .   S
    C165   O547      0.54459      .   S
    C320   O548      0.67536      .   S
    C261   O548      0.67536      .   S
    C300   O549      0.67520      .   S
    C171   O549      0.67520      .   S
    C292   O550      0.69579      .   S
    C293   O550      0.69579      .   S
    C166   O551      0.69522      .   S
    C167   O551      0.69522      .   S
    C271   O552      0.70203      .   S
    C272   O552      0.70203      .   S
    C271   O553      0.70077      .   S
    C275   O553      0.70077  1_455   S
    C130   O554      0.54433      .   S
    C272   O554      0.54433      .   S
    C181   O555      0.70180      .   S
    C182   O555      0.70180      .   S
    C181   O556      0.70090      .   S
    C185   O556      0.70090      .   S
    C291   O557      0.69635      .   S
    C290   O557      0.69635      .   S
    C40    O558      0.54436      .   S
    C182   O558      0.54436      .   S
    C165   O559      0.69634  1_655   S
    C164   O559      0.69634      .   S
    C156   O560      0.74183      .   S
    C155   O560      0.74183      .   S
    C156   O561      0.54748      .   S
    C13    O561      0.54748      .   S
    C43    O562      0.54323      .   S
    C185   O562      0.54323      .   S
    C279   O563      0.67520      .   S
    C324   O563      0.67520      .   S
    C153   O564      0.67594      .   S
    C296   O564      0.67594      .   S
    C133   O565      0.54306      .   S
    C275   O565      0.54306      .   S
    C282   O566      0.74194      .   S
    C281   O566      0.74194      .   S
    C282   O567      0.54753      .   S
    C139   O567      0.54753      .   S
    C31    O568      0.54755      .   S
    C174   O568      0.54755      .   S
    C121   O569      0.54744      .   S
    C264   O569      0.54744      .   S
    C155   O570      0.67839      .   S
    C297   O570      0.67839      .   S
    C281   O571      0.67859      .   S
    C325   O571      0.67859      .   S
    C272   O572      0.69630      .   S
    C273   O572      0.69630  1_455   S
    C182   O573      0.69638      .   S
    C183   O573      0.69638      .   S
    C275   O574      0.69523      .   S
    C274   O574      0.69523      .   S
    C185   O575      0.69555      .   S
    C184   O575      0.69555      .   S
    C293   O576      0.54321      .   S
    C151   O576      0.54321      .   S
    C293   O577      0.70084      .   S
    C289   O577      0.70084      .   S
    C167   O578      0.54307      .   S
    C25    O578      0.54307      .   S
    C167   O579      0.70052  1_655   S
    C163   O579      0.70052      .   S
    C290   O580      0.54435      .   S
    C148   O580      0.54435      .   S
    C290   O581      0.70179      .   S
    C289   O581      0.70179      .   S
    C164   O582      0.54431      .   S
    C22    O582      0.54431      .   S
    C164   O583      0.70182      .   S
    C163   O583      0.70182      .   S
    C173   O584      0.74193      .   S
    C174   O584      0.74193      .   S
    C173   O585      0.69943      .   S
    C172   O585      0.69943      .   S
    C263   O586      0.74184      .   S
    C264   O586      0.74184      .   S
    C263   O587      0.69952      .   S
    C262   O587      0.69952      .   S
    C174   O588      0.54938      .   S
    C32    O588      0.54938      .   S
    C174   O589      0.54950      .   S
    C33    O589      0.54950      .   S
    C261   O590      0.74473      .   S
    C260   O590      0.74473      .   S
    C261   O591      0.70701      .   S
    C262   O591      0.70701  1_565   S
    C171   O592      0.74442      .   S
    C170   O592      0.74442      .   S
    C171   O593      0.70697      .   S
    C172   O593      0.70697      .   S
    C273   O594      0.54460      .   S
    C131   O594      0.54460      .   S
    C273   O595      0.70274      .   S
    C277   O595      0.70274      .   S
    C264   O596      0.54949      .   S
    C122   O596      0.54949      .   S
    C264   O597      0.54878      .   S
    C123   O597      0.54878      .   S
    C183   O598      0.54458      .   S
    C41    O598      0.54458      .   S
    C183   O599      0.70276      .   S
    C187   O599      0.70276      .   S
    C289   O600      0.75079      .   S
    C288   O600      0.75079      .   S
    C119   O601      0.54925      .   S
    C260   O601      0.54925      .   S
    C29    O602      0.54897      .   S
    C170   O602      0.54897      .   S
    C163   O603      0.75053      .   S
    C162   O603      0.75053      .   S
    C274   O604      0.70085      .   S
    C277   O604      0.70085      .   S
    C274   O605      0.54360      .   S
    C132   O605      0.54360      .   S
    C184   O606      0.54401      .   S
    C42    O606      0.54401      .   S
    C184   O607      0.70114      .   S
    C187   O607      0.70114      .   S
    C118   O608      0.54913      .   S
    C260   O608      0.54913      .   S
    C324   O609      0.68401      .   S
    C325   O609      0.68401      .   S
    C324   O610      1.04393      .   S
    C7     O610      1.04393      .   S
    C296   O611      0.68407  1_565   S
    C297   O611      0.68407      .   S
    C296   O612      1.03428      .   S
    C0     O612      1.03428      .   S
    C28    O613      0.54920      .   S
    C170   O613      0.54920      .   S
    C297   O614      0.51152      .   S
    C8     O614      0.51152      .   S
    C325   O615      0.51087      .   S
    C134   O615      0.51087      .   S
    C260   O616      0.54839      .   S
    C120   O616      0.54839      .   S
    C277   O617      0.75409      .   S
    C276   O617      0.75409      .   S
    C170   O618      0.54849      .   S
    C30    O618      0.54849      .   S
    C187   O619      0.75518      .   S
    C186   O619      0.75518      .   S
    C172   O620      0.73172      .   S
    C177   O620      0.73172      .   S
    C262   O621      0.73179      .   S
    C267   O621      0.73179      .   S
    C288   O622      0.64610      .   S
    C356   O622      0.64610      .   S
    C288   O623      0.63191      .   S
    C357   O623      0.63191      .   S
    C162   O624      0.64647      .   S
    C328   O624      0.64647      .   S
    C162   O625      0.63188      .   S
    C329   O625      0.63188      .   S
    C356   O626      0.99762      .   S
    C7     O626      0.99762      .   S
    C328   O627      0.99393      .   S
    C0     O627      0.99393      .   S
    C36    O628      0.54785      .   S
    C175   O628      0.54785      .   S
    C126   O629      0.54777      .   S
    C265   O629      0.54777      .   S
    C276   O630      0.65514      .   S
    C354   O630      0.65514      .   S
    C276   O631      0.62249      .   S
    C355   O631      0.62249      .   S
    C186   O632      0.65536      .   S
    C334   O632      0.65536      .   S
    C186   O633      0.62209      .   S
    C335   O633      0.62209      .   S
    C354   O634      0.96625      .   S
    C7     O634      0.96625      .   S
    C334   O635      0.96567      .   S
    C0     O635      0.96567      .   S
    C0     O636      1.00506      .   S
    C310   O636      1.00506      .   S
    C7     O637      0.99892      .   S
    C314   O637      0.99892      .   S
    C177   O638      0.70370      .   S
    C176   O638      0.70370      .   S
    C177   O639      0.70703      .   S
    C178   O639      0.70703      .   S
    C128   O640      0.54924      .   S
    C269   O640      0.54924      .   S
    C267   O641      0.70397      .   S
    C266   O641      0.70397      .   S
    C267   O642      0.70663      .   S
    C268   O642      0.70663      .   S
    C38    O643      0.54887      .   S
    C179   O643      0.54887      .   S
    C175   O644      0.55012      .   S
    C35    O644      0.55012      .   S
    C175   O645      0.74439      .   S
    C176   O645      0.74439      .   S
    C175   O646      0.54977      .   S
    C34    O646      0.54977      .   S
    C265   O647      0.55019      .   S
    C125   O647      0.55019  1_565   S
    C265   O648      0.74447      .   S
    C266   O648      0.74447  1_565   S
    C265   O649      0.54979      .   S
    C124   O649      0.54979      .   S
    C39    O650      0.55035      .   S
    C179   O650      0.55035      .   S
    C129   O651      0.55038      .   S
    C269   O651      0.55038      .   S
    C176   O652      0.67512      .   S
    C303   O652      0.67512      .   S
    C266   O653      0.67484      .   S
    C323   O653      0.67484      .   S
    C81    O654      0.53124      .   S
    C315   O654      0.53124      .   S
    C63    O655      0.53050      .   S
    C311   O655      0.53050      .   S
    C269   O656      0.74547      .   S
    C268   O656      0.74547      .   S
    C269   O657      0.54880      .   S
    C127   O657      0.54880      .   S
    C179   O658      0.74542      .   S
    C178   O658      0.74542      .   S
    C179   O659      0.54871      .   S
    C37    O659      0.54871      .   S
    C178   O660      0.67470      .   S
    C302   O660      0.67470      .   S
    C268   O661      0.67577      .   S
    C322   O661      0.67577      .   S
    C314   O662      0.68252      .   S
    C315   O662      0.68252      .   S
    C314   O663      0.67484      .   S
    C232   O663      0.67484      .   S
    C310   O664      0.68240      .   S
    C311   O664      0.68240      .   S
    C310   O665      0.67473      .   S
    C214   O665      0.67473      .   S
    C315   O666      0.67482      .   S
    C230   O666      0.67482      .   S
    C311   O667      0.67487      .   S
    C212   O667      0.67487      .   S
    C73    O668      0.55016      .   S
    C215   O668      0.55016      .   S
    C91    O669      0.54876      .   S
    C233   O669      0.54876      .   S
    C303   O670      0.68238      .   S
    C302   O670      0.68238      .   S
    C303   O671      0.53050      .   S
    C27    O671      0.53050      .   S
    C323   O672      0.68256      .   S
    C322   O672      0.68256      .   S
    C323   O673      0.53117      .   S
    C117   O673      0.53117      .   S
    C302   O674      0.99788      .   S
    C2     O674      0.99788      .   S
    C322   O675      0.99935      .   S
    C5     O675      0.99935      .   S
    C232   O676      0.74559      .   S
    C233   O676      0.74559      .   S
    C232   O677      0.70738      .   S
    C231   O677      0.70738      .   S
    C214   O678      0.74543      .   S
    C215   O678      0.74543      .   S
    C214   O679      0.70715      .   S
    C213   O679      0.70715      .   S
    C215   O680      0.55037      .   S
    C75    O680      0.55037      .   S
    C215   O681      0.54890      .   S
    C74    O681      0.54890      .   S
    C233   O682      0.55037      .   S
    C93    O682      0.55037      .   S
    C233   O683      0.54884      .   S
    C92    O683      0.54884      .   S
    C88    O684      0.54971      .   S
    C229   O684      0.54971      .   S
    C230   O685      0.74450      .   S
    C229   O685      0.74450      .   S
    C230   O686      0.70389      .   S
    C231   O686      0.70389      .   S
    C70    O687      0.54973      .   S
    C211   O687      0.54973      .   S
    C212   O688      0.74440  1_565   S
    C211   O688      0.74440      .   S
    C212   O689      0.70382      .   S
    C213   O689      0.70382      .   S
    C89    O690      0.55016      .   S
    C229   O690      0.55016      .   S
    C71    O691      0.55011  1_565   S
    C211   O691      0.55011      .   S
    C229   O692      0.54788      .   S
    C90    O692      0.54788      .   S
    C211   O693      0.54790      .   S
    C72    O693      0.54790      .   S
    C231   O694      0.73172      .   S
    C226   O694      0.73172      .   S
    C213   O695      0.73109      .   S
    C208   O695      0.73109      .   S
    C343   O696      0.62214      .   S
    C222   O696      0.62214      .   S
    C347   O697      0.62247      .   S
    C240   O697      0.62247      .   S
    C2     O698      0.96775      .   S
    C342   O698      0.96775      .   S
    C2     O699      0.99641      .   S
    C336   O699      0.99641      .   S
    C2     O700      1.04114      .   S
    C304   O700      1.04114      .   S
    C5     O701      0.96575      .   S
    C346   O701      0.96575      .   S
    C5     O702      0.99564      .   S
    C348   O702      0.99564      .   S
    C5     O703      1.04484      .   S
    C316   O703      1.04484      .   S
    C66    O704      0.54850      .   S
    C206   O704      0.54850      .   S
    C84    O705      0.54846      .   S
    C224   O705      0.54846      .   S
    C337   O706      0.63179      .   S
    C198   O706      0.63179      .   S
    C349   O707      0.63195      .   S
    C252   O707      0.63195      .   S
    C342   O708      0.65537      .   S
    C222   O708      0.65537      .   S
    C346   O709      0.65518      .   S
    C240   O709      0.65518      .   S
    C222   O710      0.75463      .   S
    C223   O710      0.75463      .   S
    C240   O711      0.75399      .   S
    C241   O711      0.75399      .   S
    C98    O712      0.51073      .   S
    C317   O712      0.51073      .   S
    C44    O713      0.51155      .   S
    C305   O713      0.51155      .   S
    C336   O714      0.64643      .   S
    C198   O714      0.64643      .   S
    C348   O715      0.64684      .   S
    C252   O715      0.64684      .   S
    C198   O716      0.75060      .   S
    C199   O716      0.75060      .   S
    C252   O717      0.75070      .   S
    C253   O717      0.75070      .   S
    C226   O718      0.70713      .   S
    C225   O718      0.70713      .   S
    C226   O719      0.69908      .   S
    C227   O719      0.69908      .   S
    C208   O720      0.70730  1_565   S
    C207   O720      0.70730      .   S
    C208   O721      0.69998      .   S
    C209   O721      0.69998      .   S
    C87    O722      0.54951      .   S
    C228   O722      0.54951      .   S
    C96    O723      0.54360      .   S
    C238   O723      0.54360      .   S
    C223   O724      0.70104      .   S
    C220   O724      0.70104      .   S
    C223   O725      0.70265      .   S
    C219   O725      0.70265      .   S
    C78    O726      0.54400      .   S
    C220   O726      0.54400      .   S
    C69    O727      0.54944      .   S
    C210   O727      0.54944      .   S
    C206   O728      0.54922      .   S
    C64    O728      0.54922      .   S
    C206   O729      0.54872      .   S
    C65    O729      0.54872      .   S
    C206   O730      0.74441      .   S
    C207   O730      0.74441      .   S
    C241   O731      0.70082      .   S
    C238   O731      0.70082      .   S
    C241   O732      0.70263      .   S
    C237   O732      0.70263      .   S
    C224   O733      0.54789      .   S
    C82    O733      0.54789      .   S
    C224   O734      0.54920      .   S
    C83    O734      0.54920      .   S
    C224   O735      0.74475      .   S
    C225   O735      0.74475      .   S
    C86    O736      0.54949      .   S
    C228   O736      0.54949      .   S
    C68    O737      0.54933      .   S
    C210   O737      0.54933      .   S
    C77    O738      0.54454      .   S
    C219   O738      0.54454      .   S
    C317   O739      0.68375      .   S
    C316   O739      0.68375  1_565   S
    C305   O740      0.68415      .   S
    C304   O740      0.68415      .   S
    C95    O741      0.54451      .   S
    C237   O741      0.54451      .   S
    C199   O742      0.70182      .   S
    C200   O742      0.70182      .   S
    C199   O743      0.70063      .   S
    C203   O743      0.70063      .   S
    C58    O744      0.54434      .   S
    C200   O744      0.54434      .   S
    C253   O745      0.70181      .   S
    C254   O745      0.70181      .   S
    C253   O746      0.70082      .   S
    C257   O746      0.70082  1_455   S
    C112   O747      0.54428      .   S
    C254   O747      0.54428      .   S
    C228   O748      0.74174      .   S
    C227   O748      0.74174      .   S
    C115   O749      0.54314      .   S
    C257   O749      0.54314      .   S
    C61    O750      0.54303      .   S
    C203   O750      0.54303      .   S
    C210   O751      0.74196      .   S
    C209   O751      0.74196      .   S
