# CIF file generated by openbabel 2.4.90, see http://openbabel.sf.net
data_I
_chemical_name_common ''
_cell_length_a 17.739
_cell_length_b 17.719
_cell_length_c 17.713
_cell_angle_alpha 96.741
_cell_angle_beta 96.796
_cell_angle_gamma 96.639
_space_group_name_H-M_alt 'P 1'
_space_group_name_Hall 'P 1'
loop_
    _symmetry_equiv_pos_as_xyz
    x,y,z
loop_
    _atom_site_label
    _atom_site_type_symbol
    _atom_site_fract_x
    _atom_site_fract_y
    _atom_site_fract_z
    _atom_site_occupancy
    Cu0     Cu   0.90483   0.30495   0.90380   1.000
    Cu1     Cu   0.90454   0.90442   0.30435   1.000
    Cu2     Cu   0.85582   0.17115   0.85430   1.000
    Cu3     Cu   0.85520   0.85496   0.17040   1.000
    Cu4     Cu   0.17183   0.85466   0.85380   1.000
    Cu5     Cu   0.30527   0.90409   0.90378   1.000
    C6      C    0.27109   0.74275   0.87957   1.000
    C7      C    0.01713   0.20612   0.87995   1.000
    C8      C    0.88005   0.27020   0.74234   1.000
    C9      C    0.88193   0.01655   0.20540   1.000
    C10     C    0.74317   0.88120   0.26873   1.000
    C11     C    0.20524   0.87995   0.01521   1.000
    C12     C    0.74366   0.26963   0.88042   1.000
    C13     C    0.20604   0.01615   0.87987   1.000
    C14     C    0.27160   0.87983   0.74231   1.000
    C15     C    0.01645   0.88010   0.20510   1.000
    C16     C    0.88024   0.74315   0.26969   1.000
    C17     C    0.88218   0.20570   0.01584   1.000
    O18     O    0.32597   0.79716   0.90270   1.000
    O19     O    0.96333   0.15095   0.85668   1.000
    O20     O    0.00893   0.27570   0.90222   1.000
    O21     O    0.20185   0.75087   0.85570   1.000
    O22     O    0.90323   0.32514   0.79683   1.000
    O23     O    0.85947   0.96266   0.15003   1.000
    O24     O    0.90306   0.00843   0.27528   1.000
    O25     O    0.85637   0.20090   0.75036   1.000
    O26     O    0.79736   0.90338   0.32416   1.000
    O27     O    0.15016   0.85734   0.96106   1.000
    O28     O    0.27488   0.90174   0.00730   1.000
    O29     O    0.75145   0.85762   0.19941   1.000
    O30     O    0.79776   0.32494   0.90300   1.000
    O31     O    0.15097   0.96229   0.85654   1.000
    O32     O    0.27558   0.00794   0.90215   1.000
    O33     O    0.75210   0.20043   0.85652   1.000
    O34     O    0.32637   0.90321   0.79690   1.000
    O35     O    0.96252   0.85665   0.15000   1.000
    O36     O    0.00847   0.90268   0.27469   1.000
    O37     O    0.20237   0.85607   0.75027   1.000
    O38     O    0.90342   0.79752   0.32475   1.000
    O39     O    0.85962   0.15036   0.96193   1.000
    O40     O    0.90342   0.27546   0.00767   1.000
    O41     O    0.85600   0.75124   0.20046   1.000
    Og42    Og   0.27723   0.71615   0.87996   1.000
    Og43    Og   0.04389   0.20001   0.88053   1.000
    Og44    Og   0.88044   0.27634   0.71575   1.000
    Og45    Og   0.88260   0.04333   0.19931   1.000
    Og46    Og   0.71658   0.88185   0.27468   1.000
    Og47    Og   0.19917   0.88039   0.04200   1.000
    Og48    Og   0.71707   0.27560   0.88104   1.000
    Og49    Og   0.20000   0.04296   0.88042   1.000
    Og50    Og   0.27773   0.88008   0.71567   1.000
    Og51    Og   0.04318   0.88062   0.19897   1.000
    Og52    Og   0.88084   0.71657   0.27574   1.000
    Og53    Og   0.88279   0.19967   0.04264   1.000
loop_
    _geom_bond_atom_site_label_1
    _geom_bond_atom_site_label_2
    _geom_bond_distance
    _geom_bond_site_symmetry_2
    _ccdc_geom_bond_type
    O28    C11       1.28000      .   S
    O28    Cu5       1.97517  1_554   S
    O40    C17       1.27983      .   S
    O40    Cu0       1.97287  1_554   S
    C11    O27       1.27774  1_554   S
    C17    O39       1.27775  1_554   S
    O35    Cu3       1.97683      .   S
    O35    C15       1.27766  1_655   S
    O23    Cu3       1.97794      .   S
    O23    C9        1.27755  1_565   S
    Cu3    O29       1.97278      .   S
    Cu3    O41       1.97369      .   S
    O29    C10       1.28070      .   S
    O41    C16       1.28062      .   S
    C15    O36       1.27994      .   S
    C9     O24       1.27978      .   S
    C10    O26       1.28112      .   S
    C16    O38       1.28114      .   S
    O36    Cu1       1.97850  1_455   S
    O24    Cu1       1.97305  1_545   S
    Cu1    O26       1.97205      .   S
    Cu1    O38       1.96795      .   S
    C14    O37       1.28086      .   S
    C14    O34       1.28100      .   S
    C8     O25       1.28078      .   S
    C8     O22       1.28110      .   S
    O37    Cu4       1.97481      .   S
    O25    Cu2       1.97448      .   S
    O22    Cu0       1.96663      .   S
    O34    Cu5       1.97137      .   S
    Cu4    O21       1.97578      .   S
    Cu4    O31       1.98045      .   S
    Cu4    O27       1.97875      .   S
    Cu2    O33       1.97218      .   S
    Cu2    O19       1.97711      .   S
    Cu2    O39       1.97861      .   S
    O21    C6        1.28075      .   S
    O33    C12       1.28083      .   S
    O31    C13       1.27754  1_565   S
    O19    C7        1.27788  1_655   S
    C6     O18       1.28099      .   S
    C13    O32       1.28002      .   S
    C7     O20       1.27970      .   S
    C12    O30       1.28095      .   S
    O32    Cu5       1.97404  1_545   S
    O20    Cu0       1.97726  1_455   S
    O18    Cu5       1.96966      .   S
    O30    Cu0       1.97066      .   S
    Cu5    Cu4       2.44893      .   S
    Cu0    Cu2       2.44964      .   S
    Cu1    Cu3       2.45082      .   S
    C6     Og42      0.49643      .   S
    C7     Og43      0.49816      .   S
    C8     Og44      0.49629      .   S
    C9     Og45      0.49790      .   S
    C10    Og46      0.49638      .   S
    C11    Og47      0.49823      .   S
    C12    Og48      0.49629      .   S
    C13    Og49      0.49823      .   S
    C14    Og50      0.49697      .   S
    C15    Og51      0.49815      .   S
    C16    Og52      0.49613      .   S
    C17    Og53      0.49784      .   S
