# CIF file generated by openbabel 2.4.90, see http://openbabel.sf.net
data_I
_chemical_name_common ''
_cell_length_a 17.739
_cell_length_b 17.719
_cell_length_c 17.713
_cell_angle_alpha 96.741
_cell_angle_beta 96.796
_cell_angle_gamma 96.639
_space_group_name_H-M_alt 'P 1'
_space_group_name_Hall 'P 1'
loop_
    _symmetry_equiv_pos_as_xyz
    x,y,z
loop_
    _atom_site_label
    _atom_site_type_symbol
    _atom_site_fract_x
    _atom_site_fract_y
    _atom_site_fract_z
    _atom_site_occupancy
    N0      N    0.36122   0.35994   0.88465   1.000
    N1      N    0.88562   0.36062   0.35981   1.000
    N2      N    0.36089   0.88458   0.35908   1.000
    Zr3     Zr   0.23852   0.87957   0.87908   1.000
    O4      O    0.27964   0.70548   0.88074   1.000
    O5      O    0.25881   0.04386   0.88088   1.000
    O6      O    0.27968   0.88098   0.70490   1.000
    O7      O    0.25851   0.88109   0.04316   1.000
    Zr8     Zr   0.88023   0.88004   0.23732   1.000
    O9      O    0.88181   0.70600   0.27830   1.000
    O10     O    0.04448   0.88138   0.25740   1.000
    O11     O    0.88226   0.04436   0.25768   1.000
    O12     O    0.70616   0.88171   0.27784   1.000
    Zr13    Zr   0.88060   0.23798   0.87942   1.000
    O14     O    0.88248   0.25831   0.04367   1.000
    O15     O    0.70655   0.27862   0.88121   1.000
    O16     O    0.88187   0.27900   0.70528   1.000
    O17     O    0.04492   0.25821   0.88108   1.000
loop_
    _geom_bond_atom_site_label_1
    _geom_bond_atom_site_label_2
    _geom_bond_distance
    _geom_bond_site_symmetry_2
    _ccdc_geom_bond_type
    Zr3    O4        3.25343      .   S
    N0     O4        6.45850      .   S
    Zr3    O5        2.88757  1_565   S
    N0     O5        5.67457      .   S
    Zr3    O6        3.25576      .   S
    N2     O6        6.46223      .   S
    Zr3    O7        2.88247  1_556   S
    N2     O7        5.66595      .   S
    Zr8    O9        3.25254      .   S
    N1     O9        6.45644      .   S
    Zr8    O10       2.89003  1_655   S
    N2     O10       5.67986      .   S
    Zr8    O11       2.88694  1_565   S
    N1     O11       5.67429      .   S
    Zr8    O12       3.25450      .   S
    N2     O12       6.45964      .   S
    Zr13   O14       2.88506  1_556   S
    N1     O14       5.67154      .   S
    Zr13   O15       3.25336      .   S
    N0     O15       6.45869      .   S
    Zr13   O16       3.25308      .   S
    N1     O16       6.45711      .   S
    Zr13   O17       2.89164  1_655   S
    N0     O17       5.68190      .   S
