# CIF file generated by openbabel 2.4.90, see http://openbabel.sf.net
data_I
_chemical_name_common ''
_cell_length_a 19.145
_cell_length_b 19.199
_cell_length_c 17.42
_cell_angle_alpha 95.567
_cell_angle_beta 105.607
_cell_angle_gamma 90.234
_space_group_name_H-M_alt 'P 1'
_space_group_name_Hall 'P 1'
loop_
    _symmetry_equiv_pos_as_xyz
    x,y,z
loop_
    _atom_site_label
    _atom_site_type_symbol
    _atom_site_fract_x
    _atom_site_fract_y
    _atom_site_fract_z
    _atom_site_occupancy
    C0      C    0.39041   0.38559   0.16958   1.000
    C1      C    0.39030   0.88745   0.17220   1.000
    C2      C    0.88878   0.38451   0.16725   1.000
    C3      C    0.89008   0.88543   0.16788   1.000
    C4      C    0.48688   0.27519   0.34049   1.000
    C5      C    0.48815   0.77513   0.34060   1.000
    C6      C    0.98454   0.27507   0.34013   1.000
    C7      C    0.98651   0.77549   0.33970   1.000
    C8      C    0.30442   0.36686   0.82733   1.000
    C9      C    0.30458   0.86697   0.82938   1.000
    C10     C    0.80421   0.36601   0.82616   1.000
    C11     C    0.80428   0.86414   0.82614   1.000
    C12     C    0.31440   0.47568   0.65410   1.000
    C13     C    0.31666   0.97741   0.65707   1.000
    C14     C    0.81690   0.47621   0.65403   1.000
    C15     C    0.81842   0.97539   0.65637   1.000
    C16     C    0.11019   0.11616   0.82725   1.000
    C17     C    0.10978   0.61636   0.82688   1.000
    C18     C    0.61096   0.11428   0.82570   1.000
    C19     C    0.60877   0.61406   0.82390   1.000
    C20     C    0.01276   0.22722   0.65672   1.000
    C21     C    0.01432   0.72723   0.65640   1.000
    C22     C    0.51233   0.22758   0.65670   1.000
    C23     C    0.51093   0.72736   0.65656   1.000
    C24     C    0.19472   0.13591   0.16982   1.000
    C25     C    0.19609   0.63577   0.16947   1.000
    C26     C    0.69446   0.13370   0.16716   1.000
    C27     C    0.69533   0.63452   0.16679   1.000
    C28     C    0.18396   0.02732   0.34314   1.000
    C29     C    0.18279   0.52539   0.34000   1.000
    C30     C    0.68603   0.02586   0.34200   1.000
    C31     C    0.68497   0.52544   0.34004   1.000
    C32     C    0.25918   0.31824   0.05972   1.000
    C33     C    0.25341   0.82366   0.06459   1.000
    C34     C    0.75851   0.31678   0.05718   1.000
    C35     C    0.75931   0.81722   0.05743   1.000
    C36     C    0.21840   0.23603   0.05000   1.000
    C37     C    0.19592   0.75409   0.06910   1.000
    C38     C    0.71886   0.23385   0.04683   1.000
    C39     C    0.71990   0.73423   0.04721   1.000
    C40     C    0.06736   0.03182   0.17786   1.000
    C41     C    0.06368   0.53368   0.18048   1.000
    C42     C    0.56875   0.02977   0.17695   1.000
    C43     C    0.56930   0.52744   0.17474   1.000
    C44     C    0.49732   0.47318   0.12160   1.000
    C45     C    0.49619   0.97610   0.12391   1.000
    C46     C    0.99346   0.47846   0.12410   1.000
    C47     C    0.99560   0.97807   0.12348   1.000
    C48     C    0.34693   0.17189   0.30520   1.000
    C49     C    0.35043   0.66935   0.30239   1.000
    C50     C    0.84511   0.17125   0.30365   1.000
    C51     C    0.84696   0.67130   0.30348   1.000
    C52     C    0.11608   0.39120   0.40062   1.000
    C53     C    0.11664   0.89289   0.40145   1.000
    C54     C    0.61737   0.39312   0.40225   1.000
    C55     C    0.61881   0.89253   0.40226   1.000
    C56     C    0.22685   0.43571   0.93800   1.000
    C57     C    0.21842   0.93172   0.93533   1.000
    C58     C    0.71748   0.43036   0.93173   1.000
    C59     C    0.71783   0.92948   0.93246   1.000
    C60     C    0.18570   0.51482   0.94389   1.000
    C61     C    0.15396   0.99714   0.92566   1.000
    C62     C    0.65253   0.49521   0.92177   1.000
    C63     C    0.65276   0.99435   0.92213   1.000
    C64     C    0.48853   0.23463   0.82705   1.000
    C65     C    0.48595   0.73192   0.82700   1.000
    C66     C    0.98846   0.23389   0.82679   1.000
    C67     C    0.98989   0.73253   0.82878   1.000
    C68     C    0.44011   0.28787   0.87981   1.000
    C69     C    0.43887   0.78582   0.88068   1.000
    C70     C    0.93996   0.28722   0.87948   1.000
    C71     C    0.93978   0.78478   0.88016   1.000
    C72     C    0.20007   0.08181   0.69545   1.000
    C73     C    0.19521   0.57898   0.69110   1.000
    C74     C    0.70164   0.08023   0.69393   1.000
    C75     C    0.69939   0.58036   0.69215   1.000
    C76     C    0.40870   0.35446   0.58975   1.000
    C77     C    0.40922   0.85546   0.59202   1.000
    C78     C    0.90967   0.35423   0.58960   1.000
    C79     C    0.91276   0.85482   0.59210   1.000
    C80     C    0.24862   0.18145   0.93425   1.000
    C81     C    0.24686   0.67979   0.93468   1.000
    C82     C    0.74983   0.17952   0.93162   1.000
    C83     C    0.74827   0.67860   0.93069   1.000
    C84     C    0.30874   0.24684   0.92448   1.000
    C85     C    0.30525   0.74871   0.92944   1.000
    C86     C    0.81010   0.24453   0.92115   1.000
    C87     C    0.80885   0.74337   0.92010   1.000
    C88     C    0.43041   0.47282   0.82016   1.000
    C89     C    0.43234   0.97343   0.82065   1.000
    C90     C    0.93291   0.47099   0.81654   1.000
    C91     C    0.93246   0.97385   0.82159   1.000
    C92     C    0.00312   0.03058   0.87729   1.000
    C93     C    0.00221   0.52749   0.87306   1.000
    C94     C    0.50400   0.02923   0.87597   1.000
    C95     C    0.50178   0.52899   0.87528   1.000
    C96     C    0.14904   0.33275   0.69598   1.000
    C97     C    0.15259   0.83151   0.69380   1.000
    C98     C    0.64846   0.33218   0.69537   1.000
    C99     C    0.64811   0.83150   0.69417   1.000
    C100    C    0.38460   0.10872   0.59400   1.000
    C101    C    0.38232   0.60820   0.59322   1.000
    C102    C    0.88653   0.10655   0.59282   1.000
    C103    C    0.88524   0.60850   0.59187   1.000
    C104    C    0.27135   0.06840   0.06038   1.000
    C105    C    0.27401   0.56691   0.05897   1.000
    C106    C    0.77121   0.06681   0.05758   1.000
    C107    C    0.77137   0.56699   0.05673   1.000
    C108    C    0.30569   0.98588   0.05046   1.000
    C109    C    0.31419   0.48724   0.05259   1.000
    C110    C    0.80539   0.98407   0.04720   1.000
    C111    C    0.80535   0.48422   0.04633   1.000
    C112    C    0.01103   0.26903   0.16929   1.000
    C113    C    0.01124   0.76872   0.16670   1.000
    C114    C    0.51501   0.27159   0.17108   1.000
    C115    C    0.51703   0.77330   0.17232   1.000
    C116    C    0.06036   0.21675   0.11866   1.000
    C117    C    0.06169   0.71656   0.11602   1.000
    C118    C    0.56208   0.21827   0.11879   1.000
    C119    C    0.56354   0.71994   0.11941   1.000
    C120    C    0.30224   0.42151   0.30378   1.000
    C121    C    0.30599   0.92432   0.30812   1.000
    C122    C    0.80458   0.42119   0.30280   1.000
    C123    C    0.80650   0.92200   0.30488   1.000
    C124    C    0.08616   0.14665   0.40559   1.000
    C125    C    0.08726   0.64666   0.40360   1.000
    C126    C    0.58802   0.14564   0.40480   1.000
    C127    C    0.58868   0.64519   0.40429   1.000
    C128    C    0.28957   0.26149   0.15570   1.000
    C129    C    0.28728   0.76568   0.16061   1.000
    C130    C    0.78890   0.25995   0.15320   1.000
    C131    C    0.79019   0.76039   0.15346   1.000
    C132    C    0.33718   0.20833   0.25989   1.000
    C133    C    0.33924   0.70755   0.25900   1.000
    C134    C    0.83569   0.20745   0.25809   1.000
    C135    C    0.83732   0.70766   0.25800   1.000
    C136    C    0.03595   0.45407   0.23766   1.000
    C137    C    0.03798   0.95464   0.23729   1.000
    C138    C    0.53931   0.45234   0.23630   1.000
    C139    C    0.53951   0.95367   0.23789   1.000
    C140    C    0.08069   0.40434   0.34442   1.000
    C141    C    0.08170   0.90568   0.34485   1.000
    C142    C    0.58253   0.40522   0.34529   1.000
    C143    C    0.58353   0.90524   0.34580   1.000
    C144    C    0.47397   0.21862   0.48480   1.000
    C145    C    0.47383   0.71848   0.48461   1.000
    C146    C    0.97233   0.21836   0.48464   1.000
    C147    C    0.97457   0.71900   0.48436   1.000
    C148    C    0.20885   0.48997   0.84067   1.000
    C149    C    0.20425   0.98647   0.83770   1.000
    C150    C    0.70318   0.48484   0.83411   1.000
    C151    C    0.70412   0.98410   0.83500   1.000
    C152    C    0.20971   0.04412   0.73939   1.000
    C153    C    0.20707   0.54279   0.73671   1.000
    C154    C    0.71076   0.04231   0.73759   1.000
    C155    C    0.70899   0.54265   0.73605   1.000
    C156    C    0.42359   0.30494   0.76326   1.000
    C157    C    0.42298   0.80436   0.76456   1.000
    C158    C    0.92416   0.30475   0.76310   1.000
    C159    C    0.92553   0.80338   0.76437   1.000
    C160    C    0.40572   0.34555   0.64920   1.000
    C161    C    0.40598   0.84615   0.65134   1.000
    C162    C    0.90660   0.34535   0.64914   1.000
    C163    C    0.90901   0.84526   0.65117   1.000
    C164    C    0.23242   0.03552   0.51437   1.000
    C165    C    0.23116   0.53368   0.51126   1.000
    C166    C    0.73459   0.03361   0.51309   1.000
    C167    C    0.73320   0.53341   0.51132   1.000
    C168    C    0.21483   0.23667   0.83710   1.000
    C169    C    0.21399   0.73690   0.83777   1.000
    C170    C    0.71543   0.23492   0.83496   1.000
    C171    C    0.71423   0.73401   0.83387   1.000
    C172    C    0.16085   0.29487   0.73968   1.000
    C173    C    0.16318   0.79389   0.73789   1.000
    C174    C    0.66070   0.29390   0.73859   1.000
    C175    C    0.66007   0.79318   0.73736   1.000
    C176    C    0.46118   0.05094   0.76131   1.000
    C177    C    0.45881   0.55042   0.76052   1.000
    C178    C    0.96138   0.05113   0.76197   1.000
    C179    C    0.96181   0.54916   0.75817   1.000
    C180    C    0.41882   0.09724   0.65155   1.000
    C181    C    0.41651   0.59674   0.65079   1.000
    C182    C    0.92007   0.09592   0.65104   1.000
    C183    C    0.91943   0.59649   0.64920   1.000
    C184    C    0.02573   0.28236   0.51202   1.000
    C185    C    0.02696   0.78375   0.51170   1.000
    C186    C    0.52592   0.28366   0.51249   1.000
    C187    C    0.52529   0.78384   0.51262   1.000
    C188    C    0.28860   0.01234   0.15703   1.000
    C189    C    0.29065   0.51181   0.15561   1.000
    C190    C    0.78841   0.01042   0.15399   1.000
    C191    C    0.78804   0.51031   0.15200   1.000
    C192    C    0.29105   0.45809   0.25860   1.000
    C193    C    0.29327   0.96035   0.26239   1.000
    C194    C    0.79214   0.45756   0.25749   1.000
    C195    C    0.79356   0.95812   0.25926   1.000
    C196    C    0.07622   0.19962   0.23476   1.000
    C197    C    0.07564   0.69838   0.23176   1.000
    C198    C    0.57840   0.19982   0.23467   1.000
    C199    C    0.57984   0.70078   0.23498   1.000
    C200    C    0.09104   0.15691   0.34715   1.000
    C201    C    0.09143   0.65628   0.34474   1.000
    C202    C    0.59284   0.15612   0.34643   1.000
    C203    C    0.59367   0.65610   0.34610   1.000
    C204    C    0.26598   0.46682   0.48284   1.000
    C205    C    0.26673   0.96835   0.48586   1.000
    C206    C    0.76833   0.46678   0.48279   1.000
    C207    C    0.76945   0.96676   0.48471   1.000
    C208    C    0.36012   0.37229   0.00000   1.000
    C209    C    0.35733   0.87353   0.00000   1.000
    C210    C    0.85802   0.37171   0.99771   1.000
    C211    C    0.85809   0.87096   0.99795   1.000
    C212    C    0.14187   0.12244   0.00000   1.000
    C213    C    0.14171   0.63068   0.99633   1.000
    C214    C    0.64196   0.12013   0.99765   1.000
    C215    C    0.64192   0.62114   0.99725   1.000
    C216    C    0.35286   0.29529   0.19424   1.000
    C217    C    0.35236   0.79732   0.19636   1.000
    C218    C    0.85173   0.29423   0.19239   1.000
    C219    C    0.85297   0.79478   0.19264   1.000
    C220    C    0.38304   0.26097   0.26208   1.000
    C221    C    0.38539   0.75960   0.26044   1.000
    C222    C    0.88132   0.26041   0.26076   1.000
    C223    C    0.88281   0.76076   0.26080   1.000
    C224    C    0.27799   0.20641   0.19551   1.000
    C225    C    0.27740   0.70867   0.19829   1.000
    C226    C    0.77717   0.20490   0.19294   1.000
    C227    C    0.77866   0.70516   0.19307   1.000
    C228    C    0.24178   0.27945   0.08793   1.000
    C229    C    0.23694   0.78894   0.09828   1.000
    C230    C    0.74152   0.27748   0.08488   1.000
    C231    C    0.74260   0.77783   0.08522   1.000
    C232    C    0.49220   0.40070   0.23818   1.000
    C233    C    0.49245   0.90188   0.23953   1.000
    C234    C    0.98945   0.40161   0.23837   1.000
    C235    C    0.99135   0.90217   0.23782   1.000
    C236    C    0.01889   0.36959   0.30771   1.000
    C237    C    0.02016   0.87066   0.30770   1.000
    C238    C    0.52073   0.37036   0.30891   1.000
    C239    C    0.52150   0.87072   0.30960   1.000
    C240    C    0.09412   0.45752   0.30343   1.000
    C241    C    0.09555   0.95865   0.30378   1.000
    C242    C    0.59680   0.45697   0.30284   1.000
    C243    C    0.59750   0.95755   0.30392   1.000
    C244    C    0.02300   0.49904   0.17961   1.000
    C245    C    0.02567   0.99902   0.17862   1.000
    C246    C    0.52742   0.49527   0.17628   1.000
    C247    C    0.52709   0.99733   0.17859   1.000
    C248    C    0.25401   0.45622   0.80334   1.000
    C249    C    0.25357   0.95561   0.80419   1.000
    C250    C    0.75301   0.45438   0.80111   1.000
    C251    C    0.75368   0.95323   0.80193   1.000
    C252    C    0.25179   0.49038   0.73534   1.000
    C253    C    0.25605   0.99302   0.73987   1.000
    C254    C    0.75578   0.49190   0.73694   1.000
    C255    C    0.75694   0.99104   0.73817   1.000
    C256    C    0.17615   0.04272   0.79880   1.000
    C257    C    0.17865   0.54483   0.80046   1.000
    C258    C    0.67661   0.04070   0.79649   1.000
    C259    C    0.67489   0.54090   0.79500   1.000
    C260    C    0.19266   0.47156   0.90745   1.000
    C261    C    0.18276   0.96277   0.89881   1.000
    C262    C    0.68143   0.46088   0.89495   1.000
    C263    C    0.68193   0.96009   0.89560   1.000
    C264    C    0.37513   0.35607   0.76117   1.000
    C265    C    0.37556   0.85634   0.76330   1.000
    C266    C    0.87592   0.35612   0.76101   1.000
    C267    C    0.87705   0.85458   0.76228   1.000
    C268    C    0.36374   0.38170   0.68670   1.000
    C269    C    0.36469   0.88270   0.68936   1.000
    C270    C    0.86470   0.38168   0.68655   1.000
    C271    C    0.86659   0.88099   0.68830   1.000
    C272    C    0.44412   0.29696   0.69398   1.000
    C273    C    0.44342   0.79658   0.69521   1.000
    C274    C    0.94475   0.29667   0.69386   1.000
    C275    C    0.94685   0.79618   0.69550   1.000
    C276    C    0.44532   0.26551   0.82582   1.000
    C277    C    0.44375   0.76400   0.82641   1.000
    C278    C    0.94560   0.26521   0.82555   1.000
    C279    C    0.94651   0.76340   0.82647   1.000
    C280    C    0.14881   0.20577   0.80393   1.000
    C281    C    0.14886   0.70538   0.80189   1.000
    C282    C    0.64924   0.20420   0.80226   1.000
    C283    C    0.64786   0.70368   0.80101   1.000
    C284    C    0.11455   0.24356   0.74014   1.000
    C285    C    0.11667   0.74229   0.73679   1.000
    C286    C    0.61444   0.24260   0.73919   1.000
    C287    C    0.61347   0.74213   0.73788   1.000
    C288    C    0.22385   0.29331   0.79867   1.000
    C289    C    0.22450   0.79315   0.79930   1.000
    C290    C    0.72414   0.29183   0.79674   1.000
    C291    C    0.72337   0.79081   0.79564   1.000
    C292    C    0.26644   0.21258   0.89760   1.000
    C293    C    0.26377   0.71416   0.90081   1.000
    C294    C    0.76748   0.21047   0.89474   1.000
    C295    C    0.76603   0.70948   0.89375   1.000
    C296    C    0.00745   0.10418   0.76121   1.000
    C297    C    0.00845   0.60154   0.75754   1.000
    C298    C    0.50772   0.10352   0.76030   1.000
    C299    C    0.50531   0.60309   0.75960   1.000
    C300    C    0.47977   0.13301   0.68880   1.000
    C301    C    0.47739   0.63261   0.68810   1.000
    C302    C    0.98028   0.13263   0.68889   1.000
    C303    C    0.98057   0.63194   0.68680   1.000
    C304    C    0.40456   0.04548   0.69388   1.000
    C305    C    0.40221   0.54485   0.69302   1.000
    C306    C    0.90568   0.04445   0.69368   1.000
    C307    C    0.90507   0.54428   0.69093   1.000
    C308    C    0.47278   0.00816   0.82116   1.000
    C309    C    0.47058   0.50779   0.82054   1.000
    C310    C    0.97264   0.00898   0.82240   1.000
    C311    C    0.97356   0.50573   0.81766   1.000
    C312    C    0.24490   0.04638   0.19589   1.000
    C313    C    0.24526   0.54549   0.19270   1.000
    C314    C    0.74524   0.04460   0.19348   1.000
    C315    C    0.74493   0.54466   0.19222   1.000
    C316    C    0.24880   0.01291   0.26451   1.000
    C317    C    0.24652   0.51070   0.26002   1.000
    C318    C    0.74949   0.01095   0.26208   1.000
    C319    C    0.74848   0.51067   0.26041   1.000
    C320    C    0.32022   0.45642   0.19540   1.000
    C321    C    0.32000   0.95781   0.19735   1.000
    C322    C    0.81859   0.45506   0.19227   1.000
    C323    C    0.81966   0.95555   0.19370   1.000
    C324    C    0.30230   0.02962   0.08836   1.000
    C325    C    0.30748   0.53050   0.08930   1.000
    C326    C    0.80193   0.02782   0.08530   1.000
    C327    C    0.80205   0.52792   0.08443   1.000
    C328    C    0.12579   0.14960   0.23791   1.000
    C329    C    0.12395   0.64696   0.23398   1.000
    C330    C    0.62690   0.14890   0.23677   1.000
    C331    C    0.62782   0.64949   0.23649   1.000
    C332    C    0.13501   0.12225   0.31104   1.000
    C333    C    0.13395   0.62035   0.30778   1.000
    C334    C    0.63594   0.12091   0.30950   1.000
    C335    C    0.63640   0.62083   0.30876   1.000
    C336    C    0.05318   0.20586   0.30251   1.000
    C337    C    0.05399   0.70566   0.30044   1.000
    C338    C    0.55574   0.20603   0.30267   1.000
    C339    C    0.55720   0.70664   0.30300   1.000
    C340    C    0.05567   0.23974   0.17241   1.000
    C341    C    0.05508   0.73837   0.16960   1.000
    C342    C    0.55853   0.24090   0.17310   1.000
    C343    C    0.56039   0.74246   0.17393   1.000
    C344    C    0.41404   0.37551   0.06471   1.000
    C345    C    0.41098   0.87778   0.06640   1.000
    C346    C    0.91143   0.37424   0.06272   1.000
    C347    C    0.91177   0.87422   0.06275   1.000
    C348    C    0.44987   0.20246   0.41009   1.000
    C349    C    0.45046   0.70213   0.40988   1.000
    C350    C    0.94701   0.20284   0.40997   1.000
    C351    C    0.94976   0.70294   0.40971   1.000
    C352    C    0.45974   0.18630   0.53921   1.000
    C353    C    0.45925   0.68614   0.53885   1.000
    C354    C    0.95833   0.18623   0.53930   1.000
    C355    C    0.96075   0.68671   0.53900   1.000
    C356    C    0.37443   0.35273   0.93159   1.000
    C357    C    0.37244   0.85266   0.93395   1.000
    C358    C    0.87265   0.35000   0.93009   1.000
    C359    C    0.87209   0.84766   0.93045   1.000
    C360    C    0.24680   0.05210   0.58915   1.000
    C361    C    0.24482   0.54991   0.58605   1.000
    C362    C    0.74836   0.04993   0.58783   1.000
    C363    C    0.74704   0.54973   0.58614   1.000
    C364    C    0.19274   0.06909   0.46050   1.000
    C365    C    0.19177   0.56736   0.45734   1.000
    C366    C    0.69501   0.06726   0.45917   1.000
    C367    C    0.69337   0.56688   0.45752   1.000
    C368    C    0.09399   0.10078   0.93240   1.000
    C369    C    0.08732   0.62580   0.93195   1.000
    C370    C    0.59447   0.09745   0.93014   1.000
    C371    C    0.59396   0.59912   0.92984   1.000
    C372    C    0.05173   0.29741   0.58674   1.000
    C373    C    0.05192   0.79964   0.58636   1.000
    C374    C    0.55036   0.29959   0.58725   1.000
    C375    C    0.54884   0.80006   0.58740   1.000
    C376    C    0.03922   0.31503   0.45750   1.000
    C377    C    0.04062   0.81614   0.45700   1.000
    C378    C    0.53979   0.31626   0.45810   1.000
    C379    C    0.53967   0.81636   0.45845   1.000
    C380    C    0.12024   0.12527   0.06511   1.000
    C381    C    0.12737   0.65011   0.06466   1.000
    C382    C    0.62033   0.12246   0.06269   1.000
    C383    C    0.62050   0.62423   0.06250   1.000
    C384    C    0.25194   0.45034   0.40809   1.000
    C385    C    0.25234   0.95173   0.41113   1.000
    C386    C    0.75432   0.45044   0.40804   1.000
    C387    C    0.75536   0.95020   0.40998   1.000
    C388    C    0.30575   0.43340   0.53678   1.000
    C389    C    0.30654   0.93486   0.53973   1.000
    C390    C    0.80826   0.43345   0.53670   1.000
    C391    C    0.80931   0.93346   0.53875   1.000
    C392    C    0.29552   0.38695   0.00320   1.000
    C393    C    0.29231   0.88837   0.00357   1.000
    C394    C    0.79361   0.38878   0.99965   1.000
    C395    C    0.79391   0.88882   0.00000   1.000
    C396    C    0.20757   0.13921   0.00246   1.000
    C397    C    0.20662   0.61750   0.99287   1.000
    C398    C    0.70722   0.13828   0.99980   1.000
    C399    C    0.70754   0.63801   0.99944   1.000
    O400    O    0.17472   0.13083   0.00123   1.000
    O401    O    0.13106   0.12386   0.03255   1.000
    O402    O    0.11793   0.11161   0.96620   1.000
    O403    O    0.32482   0.88095   0.00178   1.000
    O404    O    0.38416   0.87565   0.03320   1.000
    O405    O    0.36489   0.86309   0.96697   1.000
    O406    O    0.32782   0.37962   0.00160   1.000
    O407    O    0.38708   0.37390   0.03235   1.000
    O408    O    0.36727   0.36251   0.96579   1.000
    O409    O    0.82600   0.87989   0.99897   1.000
    O410    O    0.80370   0.50607   0.06538   1.000
    O411    O    0.73019   0.25567   0.06585   1.000
    O412    O    0.80366   0.00594   0.06625   1.000
    O413    O    0.73125   0.75603   0.06621   1.000
    O414    O    0.23009   0.25774   0.06896   1.000
    O415    O    0.30400   0.00775   0.06941   1.000
    O416    O    0.31084   0.50887   0.07094   1.000
    O417    O    0.78671   0.54746   0.07058   1.000
    O418    O    0.75001   0.29713   0.07103   1.000
    O419    O    0.75096   0.79752   0.07132   1.000
    O420    O    0.78657   0.04731   0.07144   1.000
    O421    O    0.29075   0.54870   0.07413   1.000
    O422    O    0.25048   0.29885   0.07382   1.000
    O423    O    0.28683   0.04901   0.07437   1.000
    O424    O    0.65792   0.62937   0.11464   1.000
    O425    O    0.63121   0.62268   0.02987   1.000
    O426    O    0.65740   0.12808   0.11492   1.000
    O427    O    0.63114   0.12129   0.03017   1.000
    O428    O    0.90011   0.37938   0.11498   1.000
    O429    O    0.88473   0.37297   0.03021   1.000
    O430    O    0.90093   0.87983   0.11531   1.000
    O431    O    0.88493   0.87259   0.03035   1.000
    O432    O    0.24518   0.80630   0.08143   1.000
    O433    O    0.16173   0.64294   0.11706   1.000
    O434    O    0.13454   0.64040   0.03049   1.000
    O435    O    0.40223   0.38055   0.11714   1.000
    O436    O    0.15748   0.13059   0.11746   1.000
    O437    O    0.40064   0.88262   0.11930   1.000
    O438    O    0.21643   0.77151   0.08369   1.000
    O439    O    0.79504   0.51912   0.11821   1.000
    O440    O    0.76521   0.26872   0.11904   1.000
    O441    O    0.76639   0.76911   0.11934   1.000
    O442    O    0.79517   0.01912   0.11964   1.000
    O443    O    0.26567   0.27047   0.12181   1.000
    O444    O    0.29545   0.02098   0.12269   1.000
    O445    O    0.29907   0.52115   0.12245   1.000
    O446    O    0.26211   0.77731   0.12944   1.000
    O447    O    0.05839   0.72747   0.14281   1.000
    O448    O    0.05801   0.22824   0.14553   1.000
    O449    O    0.56031   0.22959   0.14594   1.000
    O450    O    0.56196   0.73120   0.14667   1.000
    O451    O    0.51237   0.48423   0.14894   1.000
    O452    O    0.01063   0.98854   0.15105   1.000
    O453    O    0.51164   0.98672   0.15125   1.000
    O454    O    0.00823   0.48875   0.15185   1.000
    O455    O    0.76649   0.52749   0.17211   1.000
    O456    O    0.80331   0.48269   0.17213   1.000
    O457    O    0.82032   0.27709   0.17279   1.000
    O458    O    0.78304   0.23243   0.17307   1.000
    O459    O    0.82158   0.77759   0.17305   1.000
    O460    O    0.78442   0.73278   0.17326   1.000
    O461    O    0.76683   0.02751   0.17373   1.000
    O462    O    0.80403   0.98299   0.17384   1.000
    O463    O    0.26796   0.52865   0.17415   1.000
    O464    O    0.30544   0.48412   0.17550   1.000
    O465    O    0.32122   0.27839   0.17497   1.000
    O466    O    0.28378   0.23395   0.17560   1.000
    O467    O    0.26675   0.02936   0.17646   1.000
    O468    O    0.30430   0.98508   0.17719   1.000
    O469    O    0.31982   0.78150   0.17848   1.000
    O470    O    0.28234   0.73718   0.17945   1.000
    O471    O    0.03316   0.75355   0.16815   1.000
    O472    O    0.72013   0.58959   0.17950   1.000
    O473    O    0.73699   0.66984   0.17993   1.000
    O474    O    0.66157   0.64200   0.20164   1.000
    O475    O    0.73582   0.16930   0.18005   1.000
    O476    O    0.71985   0.08915   0.18032   1.000
    O477    O    0.66068   0.14130   0.20196   1.000
    O478    O    0.85368   0.41979   0.17976   1.000
    O479    O    0.87025   0.33937   0.17982   1.000
    O480    O    0.93911   0.39306   0.20281   1.000
    O481    O    0.87153   0.84011   0.18026   1.000
    O482    O    0.85487   0.92049   0.18079   1.000
    O483    O    0.94072   0.89380   0.20285   1.000
    O484    O    0.03335   0.25438   0.17085   1.000
    O485    O    0.22068   0.59063   0.18108   1.000
    O486    O    0.23675   0.67222   0.18388   1.000
    O487    O    0.16002   0.64136   0.20172   1.000
    O488    O    0.37164   0.34044   0.18191   1.000
    O489    O    0.35532   0.42101   0.18249   1.000
    O490    O    0.44131   0.39315   0.20388   1.000
    O491    O    0.06536   0.71838   0.20068   1.000
    O492    O    0.23636   0.17116   0.18266   1.000
    O493    O    0.21981   0.09114   0.18285   1.000
    O494    O    0.16025   0.14275   0.20386   1.000
    O495    O    0.53677   0.25625   0.17209   1.000
    O496    O    0.37133   0.84239   0.18428   1.000
    O497    O    0.35515   0.92263   0.18477   1.000
    O498    O    0.44138   0.89467   0.20586   1.000
    O499    O    0.53871   0.75788   0.17312   1.000
    O500    O    0.06594   0.21968   0.20358   1.000
    O501    O    0.56847   0.22036   0.20388   1.000
    O502    O    0.57011   0.72162   0.20445   1.000
    O503    O    0.54836   0.51136   0.17551   1.000
    O504    O    0.53336   0.47380   0.20629   1.000
    O505    O    0.54792   0.01355   0.17777   1.000
    O506    O    0.04652   0.01542   0.17824   1.000
    O507    O    0.53330   0.97550   0.20824   1.000
    O508    O    0.03183   0.97683   0.20795   1.000
    O509    O    0.04334   0.51636   0.18004   1.000
    O510    O    0.02947   0.47656   0.20863   1.000
    O511    O    0.74671   0.52767   0.22631   1.000
    O512    O    0.80537   0.45631   0.22488   1.000
    O513    O    0.86653   0.27732   0.22657   1.000
    O514    O    0.86789   0.77777   0.22672   1.000
    O515    O    0.24589   0.52809   0.22636   1.000
    O516    O    0.80643   0.20618   0.22551   1.000
    O517    O    0.80799   0.70641   0.22553   1.000
    O518    O    0.74737   0.02777   0.22778   1.000
    O519    O    0.80661   0.95684   0.22648   1.000
    O520    O    0.36795   0.27813   0.22816   1.000
    O521    O    0.30563   0.45726   0.22700   1.000
    O522    O    0.30759   0.20737   0.22770   1.000
    O523    O    0.24685   0.02965   0.23020   1.000
    O524    O    0.36887   0.77846   0.22840   1.000
    O525    O    0.30663   0.95908   0.22987   1.000
    O526    O    0.30832   0.70811   0.22864   1.000
    O527    O    0.09979   0.67267   0.23287   1.000
    O528    O    0.06482   0.70202   0.26610   1.000
    O529    O    0.12895   0.63365   0.27088   1.000
    O530    O    0.60265   0.17436   0.23572   1.000
    O531    O    0.56707   0.20292   0.26867   1.000
    O532    O    0.10100   0.17461   0.23633   1.000
    O533    O    0.06470   0.20274   0.26863   1.000
    O534    O    0.60383   0.67513   0.23573   1.000
    O535    O    0.56852   0.70371   0.26899   1.000
    O536    O    0.51575   0.42652   0.23724   1.000
    O537    O    0.56805   0.45465   0.26957   1.000
    O538    O    0.63211   0.63516   0.27262   1.000
    O539    O    0.63142   0.13491   0.27313   1.000
    O540    O    0.01467   0.92840   0.23755   1.000
    O541    O    0.06677   0.95664   0.27053   1.000
    O542    O    0.01270   0.42784   0.23801   1.000
    O543    O    0.06503   0.45580   0.27054   1.000
    O544    O    0.00576   0.88641   0.27276   1.000
    O545    O    0.51598   0.92778   0.23871   1.000
    O546    O    0.56851   0.95561   0.27090   1.000
    O547    O    0.13040   0.13592   0.27447   1.000
    O548    O    0.50646   0.38553   0.27354   1.000
    O549    O    0.00417   0.38560   0.27304   1.000
    O550    O    0.50698   0.88630   0.27456   1.000
    O551    O    0.77031   0.48412   0.25895   1.000
    O552    O    0.79836   0.43938   0.28014   1.000
    O553    O    0.86007   0.73421   0.25940   1.000
    O554    O    0.84214   0.68948   0.28074   1.000
    O555    O    0.85850   0.23393   0.25942   1.000
    O556    O    0.84040   0.18935   0.28087   1.000
    O557    O    0.26878   0.48440   0.25931   1.000
    O558    O    0.29664   0.43980   0.28119   1.000
    O559    O    0.36231   0.73358   0.25972   1.000
    O560    O    0.34483   0.68845   0.28069   1.000
    O561    O    0.77152   0.98454   0.26067   1.000
    O562    O    0.80003   0.94006   0.28207   1.000
    O563    O    0.36011   0.23465   0.26098   1.000
    O564    O    0.34205   0.19011   0.28254   1.000
    O565    O    0.21465   0.51804   0.30001   1.000
    O566    O    0.71673   0.51806   0.30022   1.000
    O567    O    0.43677   0.76737   0.30052   1.000
    O568    O    0.93293   0.26774   0.30044   1.000
    O569    O    0.93466   0.76813   0.30025   1.000
    O570    O    0.71776   0.01840   0.30204   1.000
    O571    O    0.43496   0.26808   0.30128   1.000
    O572    O    0.27103   0.98663   0.26345   1.000
    O573    O    0.29963   0.94233   0.28525   1.000
    O574    O    0.21638   0.02011   0.30382   1.000
    O575    O    0.02025   0.74058   0.32007   1.000
    O576    O    0.07271   0.68097   0.32259   1.000
    O577    O    0.01886   0.24046   0.32132   1.000
    O578    O    0.07211   0.18139   0.32483   1.000
    O579    O    0.52131   0.24061   0.32158   1.000
    O580    O    0.57429   0.18107   0.32455   1.000
    O581    O    0.64088   0.49120   0.32144   1.000
    O582    O    0.58966   0.43109   0.32406   1.000
    O583    O    0.52268   0.74088   0.32180   1.000
    O584    O    0.57543   0.68137   0.32455   1.000
    O585    O    0.13845   0.49145   0.32171   1.000
    O586    O    0.08740   0.43093   0.32392   1.000
    O587    O    0.13976   0.99298   0.32346   1.000
    O588    O    0.08863   0.93216   0.32431   1.000
    O589    O    0.64177   0.99170   0.32296   1.000
    O590    O    0.59052   0.93139   0.32486   1.000
    O591    O    0.00334   0.82307   0.32370   1.000
    O592    O    0.05093   0.88817   0.32627   1.000
    O593    O    0.00171   0.32233   0.32392   1.000
    O594    O    0.04979   0.38697   0.32606   1.000
    O595    O    0.15837   0.57287   0.32389   1.000
    O596    O    0.11269   0.63832   0.32626   1.000
    O597    O    0.66068   0.57314   0.32440   1.000
    O598    O    0.61503   0.63847   0.32743   1.000
    O599    O    0.50380   0.32278   0.32470   1.000
    O600    O    0.55163   0.38779   0.32710   1.000
    O601    O    0.66099   0.07339   0.32575   1.000
    O602    O    0.61439   0.13852   0.32796   1.000
    O603    O    0.50483   0.82292   0.32510   1.000
    O604    O    0.55252   0.88798   0.32770   1.000
    O605    O    0.15949   0.07478   0.32709   1.000
    O606    O    0.11303   0.13958   0.32909   1.000
    O607    O    0.96814   0.73922   0.37470   1.000
    O608    O    0.01357   0.79581   0.39835   1.000
    O609    O    0.21736   0.48786   0.37404   1.000
    O610    O    0.18728   0.54637   0.39867   1.000
    O611    O    0.71964   0.48794   0.37404   1.000
    O612    O    0.68917   0.54616   0.39878   1.000
    O613    O    0.96577   0.23895   0.37505   1.000
    O614    O    0.01188   0.29505   0.39881   1.000
    O615    O    0.46838   0.23883   0.37529   1.000
    O616    O    0.51333   0.29572   0.39929   1.000
    O617    O    0.46931   0.73863   0.37524   1.000
    O618    O    0.51391   0.79575   0.39952   1.000
    O619    O    0.72070   0.98803   0.37599   1.000
    O620    O    0.69052   0.04656   0.40058   1.000
    O621    O    0.21815   0.98952   0.37713   1.000
    O622    O    0.18835   0.04821   0.40182   1.000
    O623    O    0.09839   0.39777   0.37252   1.000
    O624    O    0.08934   0.65147   0.37417   1.000
    O625    O    0.09917   0.89929   0.37315   1.000
    O626    O    0.59995   0.39917   0.37377   1.000
    O627    O    0.60117   0.89889   0.37403   1.000
    O628    O    0.59118   0.65065   0.37519   1.000
    O629    O    0.59043   0.15088   0.37561   1.000
    O630    O    0.08860   0.15178   0.37637   1.000
    O631    O    0.76133   0.45861   0.44541   1.000
    O632    O    0.25896   0.45858   0.44546   1.000
    O633    O    0.96217   0.71097   0.44703   1.000
    O634    O    0.46215   0.71031   0.44724   1.000
    O635    O    0.95967   0.21060   0.44730   1.000
    O636    O    0.76240   0.95848   0.44734   1.000
    O637    O    0.46192   0.21054   0.44744   1.000
    O638    O    0.25954   0.96004   0.44849   1.000
    O639    O    0.03379   0.79994   0.48435   1.000
    O640    O    0.21146   0.55052   0.48430   1.000
    O641    O    0.03248   0.29869   0.48476   1.000
    O642    O    0.71328   0.55014   0.48442   1.000
    O643    O    0.53286   0.29996   0.48529   1.000
    O644    O    0.53248   0.80010   0.48553   1.000
    O645    O    0.71480   0.05044   0.48613   1.000
    O646    O    0.21258   0.05231   0.48743   1.000
    O647    O    0.75077   0.50009   0.49705   1.000
    O648    O    0.78830   0.45011   0.50974   1.000
    O649    O    0.24857   0.50025   0.49705   1.000
    O650    O    0.28587   0.45011   0.50981   1.000
    O651    O    0.00077   0.75137   0.49803   1.000
    O652    O    0.96766   0.70285   0.51168   1.000
    O653    O    0.49956   0.75116   0.49861   1.000
    O654    O    0.46654   0.70231   0.51173   1.000
    O655    O    0.99903   0.25036   0.49833   1.000
    O656    O    0.96533   0.20230   0.51197   1.000
    O657    O    0.75202   0.00018   0.49890   1.000
    O658    O    0.78938   0.95011   0.51173   1.000
    O659    O    0.49995   0.25114   0.49864   1.000
    O660    O    0.46685   0.20246   0.51200   1.000
    O661    O    0.24958   0.00194   0.50011   1.000
    O662    O    0.28664   0.95161   0.51279   1.000
    O663    O    0.23799   0.54179   0.54865   1.000
    O664    O    0.74012   0.54157   0.54873   1.000
    O665    O    0.03944   0.79169   0.54903   1.000
    O666    O    0.03873   0.28989   0.54938   1.000
    O667    O    0.53814   0.29163   0.54987   1.000
    O668    O    0.53706   0.79195   0.55001   1.000
    O669    O    0.74147   0.04177   0.55046   1.000
    O670    O    0.23961   0.04381   0.55176   1.000
    O671    O    0.81258   0.45483   0.59536   1.000
    O672    O    0.31008   0.45454   0.59544   1.000
    O673    O    0.81387   0.95443   0.59756   1.000
    O674    O    0.48509   0.70675   0.59770   1.000
    O675    O    0.98753   0.70697   0.59770   1.000
    O676    O    0.48603   0.20694   0.59795   1.000
    O677    O    0.98555   0.20673   0.59801   1.000
    O678    O    0.31160   0.95613   0.59840   1.000
    O679    O    0.27961   0.51280   0.62007   1.000
    O680    O    0.78197   0.51297   0.62008   1.000
    O681    O    0.03312   0.76343   0.62138   1.000
    O682    O    0.03224   0.26232   0.62173   1.000
    O683    O    0.53134   0.26359   0.62197   1.000
    O684    O    0.52989   0.76371   0.62198   1.000
    O685    O    0.78339   0.01266   0.62210   1.000
    O686    O    0.28173   0.01475   0.62311   1.000
    O687    O    0.90814   0.34979   0.61937   1.000
    O688    O    0.40721   0.35001   0.61947   1.000
    O689    O    0.90234   0.60250   0.62053   1.000
    O690    O    0.40760   0.85081   0.62168   1.000
    O691    O    0.91089   0.85004   0.62163   1.000
    O692    O    0.90330   0.10123   0.62193   1.000
    O693    O    0.39941   0.60247   0.62200   1.000
    O694    O    0.40171   0.10298   0.62277   1.000
    O695    O    0.88565   0.36352   0.66784   1.000
    O696    O    0.92567   0.32101   0.67150   1.000
    O697    O    0.95000   0.61422   0.66800   1.000
    O698    O    0.91225   0.57039   0.67006   1.000
    O699    O    0.38473   0.36362   0.66795   1.000
    O700    O    0.42492   0.32125   0.67159   1.000
    O701    O    0.44695   0.61467   0.66944   1.000
    O702    O    0.40936   0.57080   0.67190   1.000
    O703    O    0.95018   0.11428   0.66996   1.000
    O704    O    0.91288   0.07018   0.67236   1.000
    O705    O    0.88780   0.86313   0.66973   1.000
    O706    O    0.92793   0.82072   0.67333   1.000
    O707    O    0.38534   0.86443   0.67035   1.000
    O708    O    0.42470   0.82137   0.67327   1.000
    O709    O    0.44930   0.11513   0.67017   1.000
    O710    O    0.41169   0.07136   0.67271   1.000
    O711    O    0.84080   0.42895   0.67029   1.000
    O712    O    0.86099   0.51025   0.67248   1.000
    O713    O    0.78634   0.48405   0.69548   1.000
    O714    O    0.33907   0.42869   0.67040   1.000
    O715    O    0.35831   0.51027   0.67356   1.000
    O716    O    0.28310   0.48303   0.69472   1.000
    O717    O    0.84250   0.92819   0.67233   1.000
    O718    O    0.86205   0.00992   0.67502   1.000
    O719    O    0.78768   0.98322   0.69727   1.000
    O720    O    0.99744   0.67958   0.67160   1.000
    O721    O    0.98058   0.76171   0.67595   1.000
    O722    O    0.06549   0.73476   0.69659   1.000
    O723    O    0.49416   0.67998   0.67233   1.000
    O724    O    0.47718   0.76197   0.67588   1.000
    O725    O    0.56220   0.73475   0.69722   1.000
    O726    O    0.49605   0.18030   0.67275   1.000
    O727    O    0.47823   0.26227   0.67534   1.000
    O728    O    0.56339   0.23509   0.69794   1.000
    O729    O    0.99652   0.17993   0.67280   1.000
    O730    O    0.97875   0.26195   0.67529   1.000
    O731    O    0.06366   0.23539   0.69843   1.000
    O732    O    0.34067   0.93005   0.67321   1.000
    O733    O    0.36061   0.01145   0.67547   1.000
    O734    O    0.28636   0.98521   0.69847   1.000
    O735    O    0.87031   0.36890   0.72378   1.000
    O736    O    0.36943   0.36889   0.72393   1.000
    O737    O    0.99451   0.61674   0.72217   1.000
    O738    O    0.49135   0.61785   0.72385   1.000
    O739    O    0.87182   0.86778   0.72529   1.000
    O740    O    0.49375   0.11827   0.72455   1.000
    O741    O    0.99387   0.11840   0.72505   1.000
    O742    O    0.37012   0.86952   0.72633   1.000
    O743    O    0.93344   0.54672   0.72455   1.000
    O744    O    0.20114   0.56088   0.71390   1.000
    O745    O    0.70419   0.56150   0.71410   1.000
    O746    O    0.43051   0.54764   0.72677   1.000
    O747    O    0.93353   0.04779   0.72782   1.000
    O748    O    0.15788   0.81270   0.71584   1.000
    O749    O    0.93445   0.30071   0.72848   1.000
    O750    O    0.43287   0.04821   0.72759   1.000
    O751    O    0.70620   0.06127   0.71576   1.000
    O752    O    0.43386   0.30095   0.72862   1.000
    O753    O    0.65409   0.81234   0.71576   1.000
    O754    O    0.43320   0.80047   0.72988   1.000
    O755    O    0.65458   0.31304   0.71698   1.000
    O756    O    0.20489   0.06297   0.71742   1.000
    O757    O    0.93619   0.79978   0.72993   1.000
    O758    O    0.15495   0.31381   0.71783   1.000
    O759    O    0.22943   0.51658   0.73602   1.000
    O760    O    0.25290   0.47330   0.76934   1.000
    O761    O    0.73238   0.51727   0.73649   1.000
    O762    O    0.69194   0.54177   0.76552   1.000
    O763    O    0.19286   0.54381   0.76858   1.000
    O764    O    0.13993   0.76809   0.73734   1.000
    O765    O    0.13277   0.72383   0.76934   1.000
    O766    O    0.75440   0.47314   0.76902   1.000
    O767    O    0.63677   0.76766   0.73762   1.000
    O768    O    0.69172   0.79199   0.76650   1.000
    O769    O    0.73385   0.01667   0.73788   1.000
    O770    O    0.69368   0.04150   0.76704   1.000
    O771    O    0.63066   0.72291   0.76944   1.000
    O772    O    0.19384   0.79352   0.76859   1.000
    O773    O    0.75531   0.97213   0.77005   1.000
    O774    O    0.63757   0.26825   0.73889   1.000
    O775    O    0.69242   0.29286   0.76766   1.000
    O776    O    0.63184   0.22340   0.77072   1.000
    O777    O    0.23288   0.01857   0.73963   1.000
    O778    O    0.19293   0.04342   0.76909   1.000
    O779    O    0.13770   0.26921   0.73991   1.000
    O780    O    0.19235   0.29409   0.76917   1.000
    O781    O    0.25481   0.97431   0.77203   1.000
    O782    O    0.13168   0.22466   0.77203   1.000
    O783    O    0.98513   0.57535   0.75785   1.000
    O784    O    0.05912   0.60895   0.79221   1.000
    O785    O    0.96768   0.52745   0.78791   1.000
    O786    O    0.48206   0.57675   0.76006   1.000
    O787    O    0.55704   0.60857   0.79175   1.000
    O788    O    0.48445   0.07723   0.76080   1.000
    O789    O    0.55934   0.10890   0.79300   1.000
    O790    O    0.46469   0.52910   0.79053   1.000
    O791    O    0.90004   0.33044   0.76205   1.000
    O792    O    0.84007   0.36107   0.79358   1.000
    O793    O    0.39936   0.33051   0.76221   1.000
    O794    O    0.33977   0.36147   0.79425   1.000
    O795    O    0.98442   0.07765   0.76159   1.000
    O796    O    0.05882   0.11017   0.79423   1.000
    O797    O    0.46698   0.02955   0.79123   1.000
    O798    O    0.96701   0.03005   0.79218   1.000
    O799    O    0.90129   0.82898   0.76332   1.000
    O800    O    0.84066   0.85936   0.79421   1.000
    O801    O    0.93488   0.28498   0.79432   1.000
    O802    O    0.43446   0.28522   0.79454   1.000
    O803    O    0.39927   0.83035   0.76393   1.000
    O804    O    0.34007   0.86165   0.79634   1.000
    O805    O    0.93602   0.78339   0.79542   1.000
    O806    O    0.43336   0.78418   0.79548   1.000
    O807    O    0.64183   0.57748   0.80945   1.000
    O808    O    0.68904   0.51287   0.81455   1.000
    O809    O    0.76382   0.82747   0.81089   1.000
    O810    O    0.71880   0.76241   0.81475   1.000
    O811    O    0.64379   0.07749   0.81109   1.000
    O812    O    0.69036   0.01240   0.81574   1.000
    O813    O    0.76417   0.32892   0.81145   1.000
    O814    O    0.71979   0.26337   0.81585   1.000
    O815    O    0.26413   0.33009   0.81300   1.000
    O816    O    0.21934   0.26499   0.81788   1.000
    O817    O    0.14317   0.07944   0.81302   1.000
    O818    O    0.19020   0.01459   0.81825   1.000
    O819    O    0.26454   0.83006   0.81434   1.000
    O820    O    0.21925   0.76503   0.81853   1.000
    O821    O    0.14422   0.58060   0.81367   1.000
    O822    O    0.19375   0.51740   0.82056   1.000
    O823    O    0.62831   0.65887   0.81245   1.000
    O824    O    0.68104   0.71884   0.81744   1.000
    O825    O    0.77861   0.41020   0.81363   1.000
    O826    O    0.72810   0.46961   0.81761   1.000
    O827    O    0.12932   0.66087   0.81438   1.000
    O828    O    0.18143   0.72114   0.81983   1.000
    O829    O    0.77898   0.90868   0.81403   1.000
    O830    O    0.72890   0.96866   0.81846   1.000
    O831    O    0.63010   0.15924   0.81398   1.000
    O832    O    0.68233   0.21956   0.81861   1.000
    O833    O    0.27922   0.41154   0.81533   1.000
    O834    O    0.23143   0.47310   0.82200   1.000
    O835    O    0.12950   0.16097   0.81559   1.000
    O836    O    0.18182   0.22122   0.82051   1.000
    O837    O    0.27907   0.91129   0.81678   1.000
    O838    O    0.22891   0.97104   0.82094   1.000
    O839    O    0.95323   0.48836   0.81710   1.000
    O840    O    0.98788   0.51661   0.84536   1.000
    O841    O    0.45050   0.49031   0.82035   1.000
    O842    O    0.48618   0.51839   0.84791   1.000
    O843    O    0.45256   0.99079   0.82090   1.000
    O844    O    0.48839   0.01869   0.84856   1.000
    O845    O    0.95255   0.99141   0.82199   1.000
    O846    O    0.98788   0.01978   0.84984   1.000
    O847    O    0.60137   0.60659   0.87687   1.000
    O848    O    0.96703   0.24955   0.82617   1.000
    O849    O    0.94278   0.27621   0.85251   1.000
    O850    O    0.60272   0.10586   0.87792   1.000
    O851    O    0.46693   0.25007   0.82643   1.000
    O852    O    0.44272   0.27669   0.85281   1.000
    O853    O    0.83818   0.85590   0.87829   1.000
    O854    O    0.83843   0.35800   0.87812   1.000
    O855    O    0.46485   0.74796   0.82670   1.000
    O856    O    0.44131   0.77491   0.85354   1.000
    O857    O    0.96820   0.74797   0.82762   1.000
    O858    O    0.94315   0.77409   0.85331   1.000
    O859    O    0.09855   0.62108   0.87941   1.000
    O860    O    0.10209   0.10847   0.87982   1.000
    O861    O    0.33942   0.35980   0.87946   1.000
    O862    O    0.33851   0.85982   0.88166   1.000
    O863    O    0.74013   0.72174   0.86381   1.000
    O864    O    0.69230   0.47286   0.86453   1.000
    O865    O    0.74146   0.22269   0.86485   1.000
    O866    O    0.69303   0.97209   0.86530   1.000
    O867    O    0.24064   0.22463   0.86735   1.000
    O868    O    0.19351   0.97462   0.86825   1.000
    O869    O    0.23888   0.72553   0.86929   1.000
    O870    O    0.20075   0.48076   0.87406   1.000
    O871    O    0.78744   0.72642   0.90692   1.000
    O872    O    0.75715   0.69404   0.91222   1.000
    O873    O    0.78879   0.22750   0.90794   1.000
    O874    O    0.75865   0.19500   0.91318   1.000
    O875    O    0.66698   0.47804   0.90836   1.000
    O876    O    0.69945   0.44562   0.91334   1.000
    O877    O    0.66735   0.97722   0.90886   1.000
    O878    O    0.69988   0.94479   0.91403   1.000
    O879    O    0.28759   0.22971   0.91104   1.000
    O880    O    0.25753   0.19702   0.91592   1.000
    O881    O    0.16836   0.97996   0.91223   1.000
    O882    O    0.20059   0.94724   0.91707   1.000
    O883    O    0.28451   0.73143   0.91512   1.000
    O884    O    0.25532   0.69697   0.91774   1.000
    O885    O    0.20975   0.45364   0.92272   1.000
    O886    O    0.18918   0.49319   0.92567   1.000
    O887    O    0.61794   0.61013   0.96354   1.000
    O888    O    0.86533   0.36085   0.96390   1.000
    O889    O    0.61821   0.10879   0.96389   1.000
    O890    O    0.86509   0.85931   0.96420   1.000
    O891    O    0.11452   0.62824   0.96414   1.000
    O892    O    0.17417   0.62409   0.99460   1.000
    O893    O    0.67473   0.62958   0.99834   1.000
    O894    O    0.67459   0.12920   0.99872   1.000
    O895    O    0.82582   0.38024   0.99868   1.000
loop_
    _geom_bond_atom_site_label_1
    _geom_bond_atom_site_label_2
    _geom_bond_distance
    _geom_bond_site_symmetry_2
    _ccdc_geom_bond_type
    C212   O400      0.64279      .   S
    C396   O400      0.64279      .   S
    C212   O401      0.65226      .   S
    C380   O401      0.65226      .   S
    C212   O402      0.65592  1_554   S
    C368   O402      0.65592      .   S
    C209   O403      0.64728      .   S
    C393   O403      0.64728      .   S
    C209   O404      0.65979      .   S
    C345   O404      0.65979      .   S
    C209   O405      0.64395  1_554   S
    C357   O405      0.64395      .   S
    C208   O406      0.64201      .   S
    C392   O406      0.64201      .   S
    C208   O407      0.65196      .   S
    C344   O407      0.65196      .   S
    C208   O408      0.65687  1_554   S
    C356   O408      0.65687      .   S
    C395   O409      0.64290  1_554   S
    C211   O409      0.64290      .   S
    C111   O410      0.51568      .   S
    C327   O410      0.51568      .   S
    C38    O411      0.51566      .   S
    C230   O411      0.51566      .   S
    C110   O412      0.51631  1_565   S
    C326   O412      0.51631      .   S
    C39    O413      0.51544      .   S
    C231   O413      0.51544      .   S
    C36    O414      0.51549      .   S
    C228   O414      0.51549      .   S
    C108   O415      0.51511  1_565   S
    C324   O415      0.51511      .   S
    C109   O416      0.51408      .   S
    C325   O416      0.51408      .   S
    C107   O417      0.51515      .   S
    C327   O417      0.51515      .   S
    C34    O418      0.51501      .   S
    C230   O418      0.51501      .   S
    C35    O419      0.51501      .   S
    C231   O419      0.51501      .   S
    C106   O420      0.51489      .   S
    C326   O420      0.51489      .   S
    C105   O421      0.51762      .   S
    C325   O421      0.51762      .   S
    C32    O422      0.51573      .   S
    C228   O422      0.51573      .   S
    C104   O423      0.51519      .   S
    C324   O423      0.51519      .   S
    C383   O424      0.98985      .   S
    C27    O424      0.98985      .   S
    C383   O425      0.65220      .   S
    C215   O425      0.65220  1_556   S
    C382   O426      0.98795      .   S
    C26    O426      0.98795      .   S
    C382   O427      0.65187      .   S
    C214   O427      0.65187  1_556   S
    C346   O428      0.98727      .   S
    C2     O428      0.98727      .   S
    C346   O429      0.65125      .   S
    C210   O429      0.65125  1_556   S
    C347   O430      0.98819      .   S
    C3     O430      0.98819      .   S
    C347   O431      0.65115      .   S
    C211   O431      0.65115  1_556   S
    C33    O432      0.51529      .   S
    C229   O432      0.51529      .   S
    C381   O433      0.99351      .   S
    C25    O433      0.99351      .   S
    C381   O434      0.65608      .   S
    C213   O434      0.65608  1_556   S
    C344   O435      0.99453      .   S
    C0     O435      0.99453      .   S
    C380   O436      0.99093      .   S
    C24    O436      0.99093      .   S
    C345   O437      0.98931      .   S
    C1     O437      0.98931      .   S
    C37    O438      0.50937      .   S
    C229   O438      0.50937      .   S
    C327   O439      0.67416      .   S
    C191   O439      0.67416      .   S
    C230   O440      0.68040      .   S
    C130   O440      0.68040      .   S
    C231   O441      0.68047      .   S
    C131   O441      0.68047      .   S
    C326   O442      0.68075      .   S
    C190   O442      0.68075      .   S
    C228   O443      0.68012      .   S
    C128   O443      0.68012      .   S
    C324   O444      0.68096      .   S
    C188   O444      0.68096      .   S
    C325   O445      0.67945      .   S
    C189   O445      0.67945      .   S
    C229   O446      0.67852      .   S
    C129   O446      0.67852      .   S
    C117   O447      0.51253      .   S
    C341   O447      0.51253      .   S
    C116   O448      0.51109      .   S
    C340   O448      0.51109      .   S
    C118   O449      0.51074      .   S
    C342   O449      0.51074      .   S
    C119   O450      0.51083      .   S
    C343   O450      0.51083      .   S
    C44    O451      0.51073      .   S
    C246   O451      0.51073      .   S
    C47    O452      0.51024  1_655   S
    C245   O452      0.51024      .   S
    C45    O453      0.51061      .   S
    C247   O453      0.51061      .   S
    C46    O454      0.51011  1_655   S
    C244   O454      0.51011      .   S
    C191   O455      0.67692      .   S
    C315   O455      0.67692      .   S
    C191   O456      0.68702      .   S
    C322   O456      0.68702      .   S
    C130   O457      0.67278      .   S
    C218   O457      0.67278      .   S
    C130   O458      0.68379      .   S
    C226   O458      0.68379      .   S
    C131   O459      0.67291      .   S
    C219   O459      0.67291      .   S
    C131   O460      0.68395      .   S
    C227   O460      0.68395      .   S
    C190   O461      0.67260      .   S
    C314   O461      0.67260      .   S
    C190   O462      0.68373  1_545   S
    C323   O462      0.68373      .   S
    C189   O463      0.67385      .   S
    C313   O463      0.67385      .   S
    C189   O464      0.68344      .   S
    C320   O464      0.68344      .   S
    C128   O465      0.67292      .   S
    C216   O465      0.67292      .   S
    C128   O466      0.68404      .   S
    C224   O466      0.68404      .   S
    C188   O467      0.67247      .   S
    C312   O467      0.67247      .   S
    C188   O468      0.68396  1_545   S
    C321   O468      0.68396      .   S
    C129   O469      0.67308      .   S
    C217   O469      0.67308      .   S
    C129   O470      0.68354      .   S
    C225   O470      0.68354      .   S
    C113   O471      0.50833      .   S
    C341   O471      0.50833      .   S
    C27    O472      1.00119      .   S
    C315   O472      1.00119      .   S
    C27    O473      1.00790      .   S
    C227   O473      1.00790      .   S
    C27    O474      1.00087      .   S
    C331   O474      1.00087      .   S
    C26    O475      1.00729      .   S
    C226   O475      1.00729      .   S
    C26    O476      1.00103      .   S
    C314   O476      1.00103      .   S
    C26    O477      1.00087      .   S
    C330   O477      1.00087      .   S
    C2     O478      1.00571      .   S
    C322   O478      1.00571      .   S
    C2     O479      1.00049      .   S
    C218   O479      1.00049      .   S
    C2     O480      0.99854      .   S
    C234   O480      0.99854      .   S
    C3     O481      1.00247      .   S
    C219   O481      1.00247      .   S
    C3     O482      1.00705      .   S
    C323   O482      1.00705      .   S
    C3     O483      0.99930      .   S
    C235   O483      0.99930      .   S
    C112   O484      0.50860      .   S
    C340   O484      0.50860      .   S
    C25    O485      0.99984      .   S
    C313   O485      0.99984      .   S
    C25    O486      1.00743      .   S
    C225   O486      1.00743      .   S
    C25    O487      1.00094      .   S
    C329   O487      1.00094      .   S
    C0     O488      1.00099      .   S
    C216   O488      1.00099      .   S
    C0     O489      1.00981      .   S
    C320   O489      1.00981      .   S
    C0     O490      0.99810      .   S
    C232   O490      0.99810      .   S
    C341   O491      0.68038      .   S
    C197   O491      0.68038      .   S
    C24    O492      1.00685      .   S
    C224   O492      1.00685      .   S
    C24    O493      1.00170      .   S
    C312   O493      1.00170      .   S
    C24    O494      1.00029      .   S
    C328   O494      1.00029      .   S
    C114   O495      0.50873      .   S
    C342   O495      0.50873      .   S
    C1     O496      0.99935      .   S
    C217   O496      0.99935      .   S
    C1     O497      1.00568      .   S
    C321   O497      1.00568      .   S
    C1     O498      0.99697      .   S
    C233   O498      0.99697      .   S
    C115   O499      0.50875      .   S
    C343   O499      0.50875      .   S
    C340   O500      0.68235      .   S
    C196   O500      0.68235      .   S
    C342   O501      0.68264      .   S
    C198   O501      0.68264      .   S
    C343   O502      0.68272      .   S
    C199   O502      0.68272      .   S
    C43    O503      0.50888      .   S
    C246   O503      0.50888      .   S
    C246   O504      0.68280      .   S
    C138   O504      0.68280      .   S
    C42    O505      0.50905      .   S
    C247   O505      0.50905  1_565   S
    C40    O506      0.50921      .   S
    C245   O506      0.50921  1_565   S
    C247   O507      0.68261      .   S
    C139   O507      0.68261      .   S
    C245   O508      0.68320      .   S
    C137   O508      0.68320      .   S
    C244   O509      0.50909      .   S
    C41    O509      0.50909      .   S
    C244   O510      0.68297      .   S
    C136   O510      0.68297      .   S
    C315   O511      0.69798      .   S
    C319   O511      0.69798      .   S
    C322   O512      0.67979      .   S
    C194   O512      0.67979      .   S
    C218   O513      0.69837      .   S
    C222   O513      0.69837      .   S
    C219   O514      0.69846      .   S
    C223   O514      0.69846      .   S
    C313   O515      0.69980      .   S
    C317   O515      0.69980      .   S
    C226   O516      0.68007      .   S
    C134   O516      0.68007      .   S
    C227   O517      0.67981      .   S
    C135   O517      0.67981      .   S
    C314   O518      0.69820      .   S
    C318   O518      0.69820      .   S
    C323   O519      0.68056      .   S
    C195   O519      0.68056      .   S
    C216   O520      0.69844      .   S
    C220   O520      0.69844      .   S
    C320   O521      0.67992      .   S
    C192   O521      0.67992      .   S
    C224   O522      0.68024      .   S
    C132   O522      0.68024      .   S
    C312   O523      0.69800      .   S
    C316   O523      0.69800      .   S
    C217   O524      0.69838      .   S
    C221   O524      0.69838      .   S
    C321   O525      0.67994      .   S
    C193   O525      0.67994      .   S
    C225   O526      0.68035      .   S
    C133   O526      0.68035      .   S
    C197   O527      0.67580      .   S
    C329   O527      0.67580      .   S
    C197   O528      0.68148      .   S
    C337   O528      0.68148      .   S
    C329   O529      0.69754      .   S
    C333   O529      0.69754      .   S
    C198   O530      0.67371      .   S
    C330   O530      0.67371      .   S
    C198   O531      0.68102      .   S
    C338   O531      0.68102      .   S
    C196   O532      0.67374      .   S
    C328   O532      0.67374      .   S
    C196   O533      0.68094      .   S
    C336   O533      0.68094      .   S
    C199   O534      0.67336      .   S
    C331   O534      0.67336      .   S
    C199   O535      0.68104      .   S
    C339   O535      0.68104      .   S
    C138   O536      0.67309      .   S
    C232   O536      0.67309      .   S
    C138   O537      0.68112      .   S
    C242   O537      0.68112      .   S
    C331   O538      0.69613      .   S
    C335   O538      0.69613      .   S
    C330   O539      0.69620      .   S
    C334   O539      0.69620      .   S
    C137   O540      0.67284      .   S
    C235   O540      0.67284  1_655   S
    C137   O541      0.68142      .   S
    C241   O541      0.68142      .   S
    C136   O542      0.67239      .   S
    C234   O542      0.67239  1_655   S
    C136   O543      0.68106      .   S
    C240   O543      0.68106      .   S
    C235   O544      0.69579  1_655   S
    C237   O544      0.69579      .   S
    C139   O545      0.67325      .   S
    C233   O545      0.67325      .   S
    C139   O546      0.68130      .   S
    C243   O546      0.68130      .   S
    C328   O547      0.69630      .   S
    C332   O547      0.69630      .   S
    C232   O548      0.69561      .   S
    C238   O548      0.69561      .   S
    C234   O549      0.69552  1_655   S
    C236   O549      0.69552      .   S
    C233   O550      0.69576      .   S
    C239   O550      0.69576      .   S
    C194   O551      0.66348      .   S
    C319   O551      0.66348      .   S
    C194   O552      0.54188      .   S
    C122   O552      0.54188      .   S
    C135   O553      0.66346      .   S
    C223   O553      0.66346      .   S
    C135   O554      0.54286      .   S
    C51    O554      0.54286      .   S
    C134   O555      0.66351      .   S
    C222   O555      0.66351      .   S
    C134   O556      0.54233      .   S
    C50    O556      0.54233      .   S
    C192   O557      0.66350      .   S
    C317   O557      0.66350      .   S
    C192   O558      0.54231      .   S
    C120   O558      0.54231      .   S
    C133   O559      0.66256      .   S
    C221   O559      0.66256      .   S
    C133   O560      0.54238      .   S
    C49    O560      0.54238      .   S
    C195   O561      0.66377      .   S
    C318   O561      0.66377  1_545   S
    C195   O562      0.54230      .   S
    C123   O562      0.54230      .   S
    C132   O563      0.66359      .   S
    C220   O563      0.66359      .   S
    C132   O564      0.54226      .   S
    C48    O564      0.54226      .   S
    C317   O565      1.04289      .   S
    C29    O565      1.04289      .   S
    C319   O566      1.03889      .   S
    C31    O566      1.03889      .   S
    C221   O567      1.04232      .   S
    C5     O567      1.04232      .   S
    C222   O568      1.04233      .   S
    C6     O568      1.04233      .   S
    C223   O569      1.04431      .   S
    C7     O569      1.04431      .   S
    C318   O570      1.04064      .   S
    C30    O570      1.04064      .   S
    C220   O571      1.04334      .   S
    C4     O571      1.04334      .   S
    C193   O572      0.66361      .   S
    C316   O572      0.66361  1_545   S
    C193   O573      0.54224      .   S
    C121   O573      0.54224      .   S
    C316   O574      1.04133      .   S
    C28    O574      1.04133      .   S
    C337   O575      1.03022      .   S
    C7     O575      1.03022  1_655   S
    C337   O576      0.68155      .   S
    C201   O576      0.68155      .   S
    C336   O577      1.02839      .   S
    C6     O577      1.02839  1_655   S
    C336   O578      0.68148      .   S
    C200   O578      0.68148      .   S
    C338   O579      1.03041      .   S
    C4     O579      1.03041      .   S
    C338   O580      0.68184      .   S
    C202   O580      0.68184      .   S
    C242   O581      1.02783      .   S
    C31    O581      1.02783      .   S
    C242   O582      0.68147      .   S
    C142   O582      0.68147      .   S
    C339   O583      1.02695      .   S
    C5     O583      1.02695      .   S
    C339   O584      0.68145      .   S
    C203   O584      0.68145      .   S
    C240   O585      1.02767      .   S
    C29    O585      1.02767      .   S
    C240   O586      0.68128      .   S
    C140   O586      0.68128      .   S
    C241   O587      1.03142      .   S
    C28    O587      1.03142  1_545   S
    C241   O588      0.68144      .   S
    C141   O588      0.68144      .   S
    C243   O589      1.02969      .   S
    C30    O589      1.02969  1_545   S
    C243   O590      0.68141      .   S
    C143   O590      0.68141      .   S
    C237   O591      1.05421      .   S
    C7     O591      1.05421  1_655   S
    C237   O592      0.66288      .   S
    C141   O592      0.66288      .   S
    C236   O593      1.05286      .   S
    C6     O593      1.05286  1_655   S
    C236   O594      0.66287      .   S
    C140   O594      0.66287      .   S
    C333   O595      1.05395      .   S
    C29    O595      1.05395      .   S
    C333   O596      0.66213      .   S
    C201   O596      0.66213      .   S
    C335   O597      1.05482      .   S
    C31    O597      1.05482      .   S
    C335   O598      0.66261      .   S
    C203   O598      0.66261      .   S
    C238   O599      1.05340      .   S
    C4     O599      1.05340      .   S
    C238   O600      0.66279      .   S
    C142   O600      0.66279      .   S
    C334   O601      1.05986      .   S
    C30    O601      1.05986      .   S
    C334   O602      0.66281      .   S
    C202   O602      0.66281      .   S
    C239   O603      1.05308      .   S
    C5     O603      1.05308      .   S
    C239   O604      0.66270      .   S
    C143   O604      0.66270      .   S
    C332   O605      1.05384      .   S
    C28    O605      1.05384      .   S
    C332   O606      0.66245      .   S
    C200   O606      0.66245      .   S
    C7     O607      1.08461      .   S
    C351   O607      1.08461      .   S
    C7     O608      1.04910  1_655   S
    C377   O608      1.04910      .   S
    C29    O609      1.08832      .   S
    C384   O609      1.08832      .   S
    C29    O610      1.04252      .   S
    C365   O610      1.04252      .   S
    C31    O611      1.08857      .   S
    C386   O611      1.08857      .   S
    C31    O612      1.04318      .   S
    C367   O612      1.04318      .   S
    C6     O613      1.08501      .   S
    C350   O613      1.08501      .   S
    C6     O614      1.04908  1_655   S
    C376   O614      1.04908      .   S
    C4     O615      1.08444      .   S
    C348   O615      1.08444      .   S
    C4     O616      1.04982      .   S
    C378   O616      1.04982      .   S
    C5     O617      1.08739      .   S
    C349   O617      1.08739      .   S
    C5     O618      1.04917      .   S
    C379   O618      1.04917      .   S
    C30    O619      1.09288  1_545   S
    C387   O619      1.09288      .   S
    C30    O620      1.03958      .   S
    C366   O620      1.03958      .   S
    C28    O621      1.08830  1_545   S
    C385   O621      1.08830      .   S
    C28    O622      1.04248      .   S
    C364   O622      1.04248      .   S
    C140   O623      0.54164      .   S
    C52    O623      0.54164      .   S
    C201   O624      0.54143      .   S
    C125   O624      0.54143      .   S
    C141   O625      0.54159      .   S
    C53    O625      0.54159      .   S
    C142   O626      0.54158      .   S
    C54    O626      0.54158      .   S
    C143   O627      0.54164      .   S
    C55    O627      0.54164      .   S
    C203   O628      0.54166      .   S
    C127   O628      0.54166      .   S
    C202   O629      0.54154      .   S
    C126   O629      0.54154      .   S
    C200   O630      0.54174      .   S
    C124   O630      0.54174      .   S
    C386   O631      0.63208      .   S
    C206   O631      0.63208      .   S
    C384   O632      0.63226      .   S
    C204   O632      0.63226      .   S
    C351   O633      0.63253      .   S
    C147   O633      0.63253      .   S
    C349   O634      0.63238      .   S
    C145   O634      0.63238      .   S
    C350   O635      0.63247      .   S
    C146   O635      0.63247      .   S
    C387   O636      0.63216      .   S
    C207   O636      0.63216      .   S
    C348   O637      0.63250      .   S
    C144   O637      0.63250      .   S
    C385   O638      0.63209      .   S
    C205   O638      0.63209      .   S
    C377   O639      0.63458      .   S
    C185   O639      0.63458      .   S
    C365   O640      0.63441      .   S
    C165   O640      0.63441      .   S
    C376   O641      0.63411      .   S
    C184   O641      0.63411      .   S
    C367   O642      0.63424      .   S
    C167   O642      0.63424      .   S
    C378   O643      0.63418      .   S
    C186   O643      0.63418      .   S
    C379   O644      0.63424      .   S
    C187   O644      0.63424      .   S
    C366   O645      0.63496      .   S
    C166   O645      0.63496      .   S
    C364   O646      0.63464      .   S
    C164   O646      0.63464      .   S
    C206   O647      0.77446      .   S
    C167   O647      0.77446      .   S
    C206   O648      0.63447      .   S
    C390   O648      0.63447      .   S
    C204   O649      0.77432      .   S
    C165   O649      0.77432      .   S
    C204   O650      0.63451      .   S
    C388   O650      0.63451      .   S
    C147   O651      0.77394  1_655   S
    C185   O651      0.77394      .   S
    C147   O652      0.63423      .   S
    C355   O652      0.63423      .   S
    C145   O653      0.77383      .   S
    C187   O653      0.77383      .   S
    C145   O654      0.63457      .   S
    C353   O654      0.63457      .   S
    C146   O655      0.77393      .   S
    C184   O655      0.77393  1_455   S
    C146   O656      0.63422      .   S
    C354   O656      0.63422      .   S
    C207   O657      0.77441  1_565   S
    C166   O657      0.77441      .   S
    C207   O658      0.63470      .   S
    C391   O658      0.63470      .   S
    C144   O659      0.77400      .   S
    C186   O659      0.77400      .   S
    C144   O660      0.63429      .   S
    C352   O660      0.63429      .   S
    C205   O661      0.77446  1_565   S
    C164   O661      0.77446      .   S
    C205   O662      0.63464      .   S
    C389   O662      0.63464      .   S
    C165   O663      0.63248      .   S
    C361   O663      0.63248      .   S
    C167   O664      0.63274      .   S
    C363   O664      0.63274      .   S
    C185   O665      0.63252      .   S
    C373   O665      0.63252      .   S
    C184   O666      0.63300      .   S
    C372   O666      0.63300      .   S
    C186   O667      0.63288      .   S
    C374   O667      0.63288      .   S
    C187   O668      0.63272      .   S
    C375   O668      0.63272      .   S
    C166   O669      0.63212      .   S
    C362   O669      0.63212      .   S
    C164   O670      0.63244      .   S
    C360   O670      0.63244      .   S
    C390   O671      1.04525      .   S
    C14    O671      1.04525      .   S
    C388   O672      1.04380      .   S
    C12    O672      1.04380      .   S
    C391   O673      1.04441      .   S
    C15    O673      1.04441      .   S
    C353   O674      1.04845      .   S
    C23    O674      1.04845      .   S
    C355   O675      1.04830      .   S
    C21    O675      1.04830  1_455   S
    C352   O676      1.04891      .   S
    C22    O676      1.04891      .   S
    C354   O677      1.05157      .   S
    C20    O677      1.05157  1_455   S
    C389   O678      1.04219      .   S
    C13    O678      1.04219      .   S
    C361   O679      1.08445      .   S
    C12    O679      1.08445      .   S
    C363   O680      1.08035      .   S
    C14    O680      1.08035      .   S
    C373   O681      1.08774      .   S
    C21    O681      1.08774      .   S
    C372   O682      1.07919      .   S
    C20    O682      1.07919      .   S
    C374   O683      1.08341      .   S
    C22    O683      1.08341      .   S
    C375   O684      1.08566      .   S
    C23    O684      1.08566      .   S
    C362   O685      1.09067      .   S
    C15    O685      1.09067  1_565   S
    C360   O686      1.08836      .   S
    C13    O686      1.08836  1_565   S
    C78    O687      0.54208      .   S
    C162   O687      0.54208      .   S
    C76    O688      0.54111      .   S
    C160   O688      0.54111      .   S
    C103   O689      0.54156      .   S
    C183   O689      0.54156      .   S
    C77    O690      0.54172      .   S
    C161   O690      0.54172      .   S
    C79    O691      0.54175      .   S
    C163   O691      0.54175      .   S
    C102   O692      0.54162      .   S
    C182   O692      0.54162      .   S
    C101   O693      0.54162      .   S
    C181   O693      0.54162      .   S
    C100   O694      0.54161      .   S
    C180   O694      0.54161      .   S
    C162   O695      0.66188      .   S
    C270   O695      0.66188      .   S
    C162   O696      0.68087      .   S
    C274   O696      0.68087      .   S
    C183   O697      0.66268      .   S
    C303   O697      0.66268      .   S
    C183   O698      0.68111      .   S
    C307   O698      0.68111      .   S
    C160   O699      0.66212      .   S
    C268   O699      0.66212      .   S
    C160   O700      0.68142      .   S
    C272   O700      0.68142      .   S
    C181   O701      0.66222      .   S
    C301   O701      0.66222      .   S
    C181   O702      0.68133      .   S
    C305   O702      0.68133      .   S
    C182   O703      0.66230      .   S
    C302   O703      0.66230      .   S
    C182   O704      0.68087      .   S
    C306   O704      0.68087      .   S
    C163   O705      0.66138      .   S
    C271   O705      0.66138      .   S
    C163   O706      0.68095      .   S
    C275   O706      0.68095      .   S
    C161   O707      0.66185      .   S
    C269   O707      0.66185      .   S
    C161   O708      0.68106      .   S
    C273   O708      0.68106      .   S
    C180   O709      0.66217      .   S
    C300   O709      0.66217      .   S
    C180   O710      0.68083      .   S
    C304   O710      0.68083      .   S
    C14    O711      1.04713      .   S
    C270   O711      1.04713      .   S
    C14    O712      1.02535      .   S
    C307   O712      1.02535      .   S
    C14    O713      1.04573      .   S
    C254   O713      1.04573      .   S
    C12    O714      1.04818      .   S
    C268   O714      1.04818      .   S
    C12    O715      1.02988      .   S
    C305   O715      1.02988      .   S
    C12    O716      1.04377      .   S
    C252   O716      1.04377      .   S
    C15    O717      1.04616      .   S
    C271   O717      1.04616      .   S
    C15    O718      1.02492  1_565   S
    C306   O718      1.02492      .   S
    C15    O719      1.04023      .   S
    C255   O719      1.04023      .   S
    C21    O720      1.04972  1_455   S
    C303   O720      1.04972      .   S
    C21    O721      1.02431  1_455   S
    C275   O721      1.02431      .   S
    C21    O722      1.03981      .   S
    C285   O722      1.03981      .   S
    C23    O723      1.04855      .   S
    C301   O723      1.04855      .   S
    C23    O724      1.02456      .   S
    C273   O724      1.02456      .   S
    C23    O725      1.04428      .   S
    C287   O725      1.04428      .   S
    C22    O726      1.04560      .   S
    C300   O726      1.04560      .   S
    C22    O727      1.02519      .   S
    C272   O727      1.02519      .   S
    C22    O728      1.04559      .   S
    C286   O728      1.04559      .   S
    C20    O729      1.04575  1_455   S
    C302   O729      1.04575      .   S
    C20    O730      1.02371  1_455   S
    C274   O730      1.02371      .   S
    C20    O731      1.04771      .   S
    C284   O731      1.04771      .   S
    C13    O732      1.04905      .   S
    C269   O732      1.04905      .   S
    C13    O733      1.02353  1_565   S
    C304   O733      1.02353      .   S
    C13    O734      1.04113      .   S
    C253   O734      1.04113      .   S
    C270   O735      0.69713      .   S
    C266   O735      0.69713      .   S
    C268   O736      0.69731      .   S
    C264   O736      0.69731      .   S
    C303   O737      0.69502      .   S
    C297   O737      0.69502  1_455   S
    C301   O738      0.69631      .   S
    C299   O738      0.69631      .   S
    C271   O739      0.69765      .   S
    C267   O739      0.69765      .   S
    C300   O740      0.69621      .   S
    C298   O740      0.69621      .   S
    C302   O741      0.69633      .   S
    C296   O741      0.69633  1_455   S
    C269   O742      0.69671      .   S
    C265   O742      0.69671      .   S
    C307   O743      0.68083      .   S
    C179   O743      0.68083      .   S
    C73    O744      0.54248      .   S
    C153   O744      0.54248      .   S
    C75    O745      0.54218      .   S
    C155   O745      0.54218      .   S
    C305   O746      0.68142      .   S
    C177   O746      0.68142      .   S
    C306   O747      0.68105      .   S
    C178   O747      0.68105      .   S
    C97    O748      0.54262      .   S
    C173   O748      0.54262      .   S
    C274   O749      0.68083      .   S
    C158   O749      0.68083      .   S
    C304   O750      0.68112      .   S
    C176   O750      0.68112      .   S
    C74    O751      0.54220      .   S
    C154   O751      0.54220      .   S
    C272   O752      0.68085      .   S
    C156   O752      0.68085      .   S
    C99    O753      0.54217      .   S
    C175   O753      0.54217      .   S
    C273   O754      0.68094      .   S
    C157   O754      0.68094      .   S
    C98    O755      0.54220      .   S
    C174   O755      0.54220      .   S
    C72    O756      0.54223      .   S
    C152   O756      0.54223      .   S
    C275   O757      0.68132      .   S
    C159   O757      0.68132      .   S
    C96    O758      0.54219      .   S
    C172   O758      0.54219      .   S
    C252   O759      0.66320      .   S
    C153   O759      0.66320      .   S
    C252   O760      0.69977      .   S
    C248   O760      0.69977      .   S
    C155   O761      0.66230      .   S
    C254   O761      0.66230      .   S
    C155   O762      0.67990      .   S
    C259   O762      0.67990      .   S
    C153   O763      0.67963      .   S
    C257   O763      0.67963      .   S
    C285   O764      0.66233      .   S
    C173   O764      0.66233      .   S
    C285   O765      0.69847      .   S
    C281   O765      0.69847      .   S
    C254   O766      0.69982      .   S
    C250   O766      0.69982      .   S
    C175   O767      0.66242      .   S
    C287   O767      0.66242      .   S
    C175   O768      0.67991      .   S
    C291   O768      0.67991      .   S
    C154   O769      0.66239      .   S
    C255   O769      0.66239  1_565   S
    C154   O770      0.67974      .   S
    C258   O770      0.67974      .   S
    C287   O771      0.69998      .   S
    C283   O771      0.69998      .   S
    C173   O772      0.68011      .   S
    C289   O772      0.68011      .   S
    C255   O773      0.69966      .   S
    C251   O773      0.69966      .   S
    C174   O774      0.66228      .   S
    C286   O774      0.66228      .   S
    C174   O775      0.67987      .   S
    C290   O775      0.67987      .   S
    C286   O776      0.70027      .   S
    C282   O776      0.70027      .   S
    C152   O777      0.66232      .   S
    C253   O777      0.66232  1_565   S
    C152   O778      0.67965      .   S
    C256   O778      0.67965      .   S
    C172   O779      0.66229      .   S
    C284   O779      0.66229      .   S
    C172   O780      0.68023      .   S
    C288   O780      0.68023      .   S
    C253   O781      0.69966      .   S
    C249   O781      0.69966      .   S
    C284   O782      0.69990      .   S
    C280   O782      0.69990      .   S
    C297   O783      0.67244  1_455   S
    C179   O783      0.67244      .   S
    C297   O784      0.99641      .   S
    C17    O784      0.99641      .   S
    C179   O785      0.68260      .   S
    C311   O785      0.68260      .   S
    C299   O786      0.67438      .   S
    C177   O786      0.67438      .   S
    C299   O787      0.99741      .   S
    C19    O787      0.99741      .   S
    C298   O788      0.67416      .   S
    C176   O788      0.67416      .   S
    C298   O789      0.99833      .   S
    C18    O789      0.99833      .   S
    C177   O790      0.68088      .   S
    C309   O790      0.68088      .   S
    C266   O791      0.67512      .   S
    C158   O791      0.67512      .   S
    C266   O792      1.00099      .   S
    C10    O792      1.00099      .   S
    C264   O793      0.67490      .   S
    C156   O793      0.67490      .   S
    C264   O794      0.99996      .   S
    C8     O794      0.99996      .   S
    C296   O795      0.67398  1_455   S
    C178   O795      0.67398      .   S
    C296   O796      0.99654      .   S
    C16    O796      0.99654      .   S
    C176   O797      0.68086      .   S
    C308   O797      0.68086      .   S
    C178   O798      0.68083      .   S
    C310   O798      0.68083      .   S
    C267   O799      0.67552      .   S
    C159   O799      0.67552      .   S
    C267   O800      1.00111      .   S
    C11    O800      1.00111      .   S
    C158   O801      0.68025      .   S
    C278   O801      0.68025      .   S
    C156   O802      0.68055      .   S
    C276   O802      0.68055      .   S
    C265   O803      0.67479      .   S
    C157   O803      0.67479      .   S
    C265   O804      1.00150      .   S
    C9     O804      1.00150      .   S
    C159   O805      0.68017      .   S
    C279   O805      0.68017      .   S
    C157   O806      0.68069      .   S
    C277   O806      0.68069      .   S
    C259   O807      1.00611      .   S
    C19    O807      1.00611      .   S
    C259   O808      0.68265      .   S
    C150   O808      0.68265      .   S
    C291   O809      1.00720      .   S
    C11    O809      1.00720      .   S
    C291   O810      0.68289      .   S
    C171   O810      0.68289      .   S
    C258   O811      1.00659      .   S
    C18    O811      1.00659      .   S
    C258   O812      0.68269      .   S
    C151   O812      0.68269  1_565   S
    C290   O813      1.00732      .   S
    C10    O813      1.00732      .   S
    C290   O814      0.68272      .   S
    C170   O814      0.68272      .   S
    C288   O815      1.00663      .   S
    C8     O815      1.00663      .   S
    C288   O816      0.68235      .   S
    C168   O816      0.68235      .   S
    C256   O817      1.00557      .   S
    C16    O817      1.00557      .   S
    C256   O818      0.68292      .   S
    C149   O818      0.68292  1_565   S
    C289   O819      1.00493      .   S
    C9     O819      1.00493      .   S
    C289   O820      0.68315      .   S
    C169   O820      0.68315      .   S
    C257   O821      1.00679      .   S
    C17    O821      1.00679      .   S
    C257   O822      0.68276      .   S
    C148   O822      0.68276      .   S
    C283   O823      0.99532      .   S
    C19    O823      0.99532      .   S
    C283   O824      0.67444      .   S
    C171   O824      0.67444      .   S
    C250   O825      0.99453      .   S
    C10    O825      0.99453      .   S
    C250   O826      0.67400      .   S
    C150   O826      0.67400      .   S
    C281   O827      0.99743      .   S
    C17    O827      0.99743      .   S
    C281   O828      0.67323      .   S
    C169   O828      0.67323      .   S
    C251   O829      0.99690      .   S
    C11    O829      0.99690      .   S
    C251   O830      0.67375      .   S
    C151   O830      0.67375      .   S
    C282   O831      0.99647      .   S
    C18    O831      0.99647      .   S
    C282   O832      0.67429      .   S
    C170   O832      0.67429      .   S
    C248   O833      0.99812      .   S
    C8     O833      0.99812      .   S
    C248   O834      0.67376      .   S
    C148   O834      0.67376      .   S
    C280   O835      0.99477      .   S
    C16    O835      0.99477      .   S
    C280   O836      0.67415      .   S
    C168   O836      0.67415      .   S
    C249   O837      0.99622      .   S
    C9     O837      0.99622      .   S
    C249   O838      0.67403      .   S
    C149   O838      0.67403      .   S
    C90    O839      0.50891      .   S
    C311   O839      0.50891      .   S
    C311   O840      0.51035      .   S
    C93    O840      0.51035  1_455   S
    C88    O841      0.50851      .   S
    C309   O841      0.50851      .   S
    C309   O842      0.51184      .   S
    C95    O842      0.51184      .   S
    C89    O843      0.50865      .   S
    C308   O843      0.50865  1_545   S
    C308   O844      0.51201      .   S
    C94    O844      0.51201      .   S
    C91    O845      0.50864      .   S
    C310   O845      0.50864  1_545   S
    C310   O846      0.51179      .   S
    C92    O846      0.51179  1_455   S
    C19    O847      0.99397      .   S
    C371   O847      0.99397      .   S
    C278   O848      0.50809      .   S
    C66    O848      0.50809      .   S
    C278   O849      0.51251      .   S
    C70    O849      0.51251      .   S
    C18    O850      0.99203      .   S
    C370   O850      0.99203      .   S
    C276   O851      0.50816      .   S
    C64    O851      0.50816      .   S
    C276   O852      0.51267      .   S
    C68    O852      0.51267      .   S
    C11    O853      0.99160      .   S
    C359   O853      0.99160      .   S
    C10    O854      0.99049      .   S
    C358   O854      0.99049      .   S
    C277   O855      0.50822      .   S
    C65    O855      0.50822      .   S
    C277   O856      0.51209      .   S
    C69    O856      0.51209      .   S
    C279   O857      0.50822      .   S
    C67    O857      0.50822      .   S
    C279   O858      0.51251      .   S
    C71    O858      0.51251      .   S
    C17    O859      0.99090      .   S
    C369   O859      0.99090      .   S
    C16    O860      0.99351      .   S
    C368   O860      0.99351      .   S
    C8     O861      0.99466      .   S
    C356   O861      0.99466      .   S
    C9     O862      0.98848      .   S
    C357   O862      0.98848      .   S
    C171   O863      0.67751      .   S
    C295   O863      0.67751      .   S
    C150   O864      0.67805      .   S
    C262   O864      0.67805      .   S
    C170   O865      0.67785      .   S
    C294   O865      0.67785      .   S
    C151   O866      0.67849      .   S
    C263   O866      0.67849      .   S
    C168   O867      0.67807      .   S
    C292   O867      0.67807      .   S
    C149   O868      0.67780      .   S
    C261   O868      0.67780      .   S
    C169   O869      0.67792      .   S
    C293   O869      0.67792      .   S
    C148   O870      0.67952      .   S
    C260   O870      0.67952      .   S
    C295   O871      0.51019      .   S
    C87    O871      0.51019      .   S
    C295   O872      0.51748      .   S
    C83    O872      0.51748      .   S
    C294   O873      0.51003      .   S
    C86    O873      0.51003      .   S
    C294   O874      0.51698      .   S
    C82    O874      0.51698      .   S
    C262   O875      0.51014      .   S
    C62    O875      0.51014      .   S
    C262   O876      0.51683      .   S
    C58    O876      0.51683      .   S
    C263   O877      0.51016      .   S
    C63    O877      0.51016      .   S
    C263   O878      0.51693      .   S
    C59    O878      0.51693      .   S
    C292   O879      0.50979      .   S
    C84    O879      0.50979      .   S
    C292   O880      0.51740      .   S
    C80    O880      0.51740      .   S
    C261   O881      0.50996      .   S
    C61    O881      0.50996      .   S
    C261   O882      0.51706      .   S
    C57    O882      0.51706      .   S
    C293   O883      0.50933      .   S
    C85    O883      0.50933      .   S
    C293   O884      0.51594      .   S
    C81    O884      0.51594      .   S
    C260   O885      0.51780      .   S
    C56    O885      0.51780      .   S
    C260   O886      0.51345      .   S
    C60    O886      0.51345      .   S
    C371   O887      0.65594      .   S
    C215   O887      0.65594      .   S
    C358   O888      0.65634      .   S
    C210   O888      0.65634      .   S
    C370   O889      0.65598      .   S
    C214   O889      0.65598      .   S
    C359   O890      0.65635      .   S
    C211   O890      0.65635      .   S
    C369   O891      0.65213      .   S
    C213   O891      0.65213      .   S
    C397   O892      0.64268      .   S
    C213   O892      0.64268      .   S
    C215   O893      0.64290      .   S
    C399   O893      0.64290      .   S
    C214   O894      0.64281      .   S
    C398   O894      0.64281      .   S
    C210   O895      0.64272      .   S
    C394   O895      0.64272      .   S
