# CIF file generated by openbabel 2.4.90, see http://openbabel.sf.net
data_I
_chemical_name_common ''
_cell_length_a 19.145
_cell_length_b 19.199
_cell_length_c 17.42
_cell_angle_alpha 95.567
_cell_angle_beta 105.607
_cell_angle_gamma 90.234
_space_group_name_H-M_alt 'P 1'
_space_group_name_Hall 'P 1'
loop_
    _symmetry_equiv_pos_as_xyz
    x,y,z
loop_
    _atom_site_label
    _atom_site_type_symbol
    _atom_site_fract_x
    _atom_site_fract_y
    _atom_site_fract_z
    _atom_site_occupancy
    Zr0     Zr   0.39041   0.38559   0.16958   1.000
    Zr1     Zr   0.39030   0.88745   0.17220   1.000
    Zr2     Zr   0.88878   0.38451   0.16725   1.000
    Zr3     Zr   0.89008   0.88543   0.16788   1.000
    Zr4     Zr   0.48688   0.27519   0.34049   1.000
    Zr5     Zr   0.48815   0.77513   0.34060   1.000
    Zr6     Zr   0.98454   0.27507   0.34013   1.000
    Zr7     Zr   0.98651   0.77549   0.33970   1.000
    Zr8     Zr   0.30442   0.36686   0.82733   1.000
    Zr9     Zr   0.30458   0.86697   0.82938   1.000
    Zr10    Zr   0.80421   0.36601   0.82616   1.000
    Zr11    Zr   0.80428   0.86414   0.82614   1.000
    Zr12    Zr   0.31440   0.47568   0.65410   1.000
    Zr13    Zr   0.31666   0.97741   0.65707   1.000
    Zr14    Zr   0.81690   0.47621   0.65403   1.000
    Zr15    Zr   0.81842   0.97539   0.65637   1.000
    Zr16    Zr   0.11019   0.11616   0.82725   1.000
    Zr17    Zr   0.10978   0.61636   0.82688   1.000
    Zr18    Zr   0.61096   0.11428   0.82570   1.000
    Zr19    Zr   0.60877   0.61406   0.82390   1.000
    Zr20    Zr   0.01276   0.22722   0.65672   1.000
    Zr21    Zr   0.01432   0.72723   0.65640   1.000
    Zr22    Zr   0.51233   0.22758   0.65670   1.000
    Zr23    Zr   0.51093   0.72736   0.65656   1.000
    Zr24    Zr   0.19472   0.13591   0.16982   1.000
    Zr25    Zr   0.19609   0.63577   0.16947   1.000
    Zr26    Zr   0.69446   0.13370   0.16716   1.000
    Zr27    Zr   0.69533   0.63452   0.16679   1.000
    Zr28    Zr   0.18396   0.02732   0.34314   1.000
    Zr29    Zr   0.18279   0.52539   0.34000   1.000
    Zr30    Zr   0.68603   0.02586   0.34200   1.000
    Zr31    Zr   0.68497   0.52544   0.34004   1.000
    Zr32    Zr   0.25918   0.31824   0.05972   1.000
    Zr33    Zr   0.25341   0.82366   0.06459   1.000
    Zr34    Zr   0.75851   0.31678   0.05718   1.000
    Zr35    Zr   0.75931   0.81722   0.05743   1.000
    Zr36    Zr   0.21840   0.23603   0.05000   1.000
    Zr37    Zr   0.19592   0.75409   0.06910   1.000
    Zr38    Zr   0.71886   0.23385   0.04683   1.000
    Zr39    Zr   0.71990   0.73423   0.04721   1.000
    Zr40    Zr   0.06736   0.03182   0.17786   1.000
    Zr41    Zr   0.06368   0.53368   0.18048   1.000
    Zr42    Zr   0.56875   0.02977   0.17695   1.000
    Zr43    Zr   0.56930   0.52744   0.17474   1.000
    Zr44    Zr   0.49732   0.47318   0.12160   1.000
    Zr45    Zr   0.49619   0.97610   0.12391   1.000
    Zr46    Zr   0.99346   0.47846   0.12410   1.000
    Zr47    Zr   0.99560   0.97807   0.12348   1.000
    Zr48    Zr   0.34693   0.17189   0.30520   1.000
    Zr49    Zr   0.35043   0.66935   0.30239   1.000
    Zr50    Zr   0.84511   0.17125   0.30365   1.000
    Zr51    Zr   0.84696   0.67130   0.30348   1.000
    Zr52    Zr   0.11608   0.39120   0.40062   1.000
    Zr53    Zr   0.11664   0.89289   0.40145   1.000
    Zr54    Zr   0.61737   0.39312   0.40225   1.000
    Zr55    Zr   0.61881   0.89253   0.40226   1.000
    Zr56    Zr   0.22685   0.43571   0.93800   1.000
    Zr57    Zr   0.21842   0.93172   0.93533   1.000
    Zr58    Zr   0.71748   0.43036   0.93173   1.000
    Zr59    Zr   0.71783   0.92948   0.93246   1.000
    Zr60    Zr   0.18570   0.51482   0.94389   1.000
    Zr61    Zr   0.15396   0.99714   0.92566   1.000
    Zr62    Zr   0.65253   0.49521   0.92177   1.000
    Zr63    Zr   0.65276   0.99435   0.92213   1.000
    Zr64    Zr   0.48853   0.23463   0.82705   1.000
    Zr65    Zr   0.48595   0.73192   0.82700   1.000
    Zr66    Zr   0.98846   0.23389   0.82679   1.000
    Zr67    Zr   0.98989   0.73253   0.82878   1.000
    Zr68    Zr   0.44011   0.28787   0.87981   1.000
    Zr69    Zr   0.43887   0.78582   0.88068   1.000
    Zr70    Zr   0.93996   0.28722   0.87948   1.000
    Zr71    Zr   0.93978   0.78478   0.88016   1.000
    Zr72    Zr   0.20007   0.08181   0.69545   1.000
    Zr73    Zr   0.19521   0.57898   0.69110   1.000
    Zr74    Zr   0.70164   0.08023   0.69393   1.000
    Zr75    Zr   0.69939   0.58036   0.69215   1.000
    Zr76    Zr   0.40870   0.35446   0.58975   1.000
    Zr77    Zr   0.40922   0.85546   0.59202   1.000
    Zr78    Zr   0.90967   0.35423   0.58960   1.000
    Zr79    Zr   0.91276   0.85482   0.59210   1.000
    Zr80    Zr   0.24862   0.18145   0.93425   1.000
    Zr81    Zr   0.24686   0.67979   0.93468   1.000
    Zr82    Zr   0.74983   0.17952   0.93162   1.000
    Zr83    Zr   0.74827   0.67860   0.93069   1.000
    Zr84    Zr   0.30874   0.24684   0.92448   1.000
    Zr85    Zr   0.30525   0.74871   0.92944   1.000
    Zr86    Zr   0.81010   0.24453   0.92115   1.000
    Zr87    Zr   0.80885   0.74337   0.92010   1.000
    Zr88    Zr   0.43041   0.47282   0.82016   1.000
    Zr89    Zr   0.43234   0.97343   0.82065   1.000
    Zr90    Zr   0.93291   0.47099   0.81654   1.000
    Zr91    Zr   0.93246   0.97385   0.82159   1.000
    Zr92    Zr   0.00312   0.03058   0.87729   1.000
    Zr93    Zr   0.00221   0.52749   0.87306   1.000
    Zr94    Zr   0.50400   0.02923   0.87597   1.000
    Zr95    Zr   0.50178   0.52899   0.87528   1.000
    Zr96    Zr   0.14904   0.33275   0.69598   1.000
    Zr97    Zr   0.15259   0.83151   0.69380   1.000
    Zr98    Zr   0.64846   0.33218   0.69537   1.000
    Zr99    Zr   0.64811   0.83150   0.69417   1.000
    Zr100   Zr   0.38460   0.10872   0.59400   1.000
    Zr101   Zr   0.38232   0.60820   0.59322   1.000
    Zr102   Zr   0.88653   0.10655   0.59282   1.000
    Zr103   Zr   0.88524   0.60850   0.59187   1.000
    Zr104   Zr   0.27135   0.06840   0.06038   1.000
    Zr105   Zr   0.27401   0.56691   0.05897   1.000
    Zr106   Zr   0.77121   0.06681   0.05758   1.000
    Zr107   Zr   0.77137   0.56699   0.05673   1.000
    Zr108   Zr   0.30569   0.98588   0.05046   1.000
    Zr109   Zr   0.31419   0.48724   0.05259   1.000
    Zr110   Zr   0.80539   0.98407   0.04720   1.000
    Zr111   Zr   0.80535   0.48422   0.04633   1.000
    Zr112   Zr   0.01103   0.26903   0.16929   1.000
    Zr113   Zr   0.01124   0.76872   0.16670   1.000
    Zr114   Zr   0.51501   0.27159   0.17108   1.000
    Zr115   Zr   0.51703   0.77330   0.17232   1.000
    Zr116   Zr   0.06036   0.21675   0.11866   1.000
    Zr117   Zr   0.06169   0.71656   0.11602   1.000
    Zr118   Zr   0.56208   0.21827   0.11879   1.000
    Zr119   Zr   0.56354   0.71994   0.11941   1.000
    Zr120   Zr   0.30224   0.42151   0.30378   1.000
    Zr121   Zr   0.30599   0.92432   0.30812   1.000
    Zr122   Zr   0.80458   0.42119   0.30280   1.000
    Zr123   Zr   0.80650   0.92200   0.30488   1.000
    Zr124   Zr   0.08616   0.14665   0.40559   1.000
    Zr125   Zr   0.08726   0.64666   0.40360   1.000
    Zr126   Zr   0.58802   0.14564   0.40480   1.000
    Zr127   Zr   0.58868   0.64519   0.40429   1.000
    Zr128   Zr   0.28957   0.26149   0.15570   1.000
    Zr129   Zr   0.28728   0.76568   0.16061   1.000
    Zr130   Zr   0.78890   0.25995   0.15320   1.000
    Zr131   Zr   0.79019   0.76039   0.15346   1.000
    Zr132   Zr   0.33718   0.20833   0.25989   1.000
    Zr133   Zr   0.33924   0.70755   0.25900   1.000
    Zr134   Zr   0.83569   0.20745   0.25809   1.000
    Zr135   Zr   0.83732   0.70766   0.25800   1.000
    Zr136   Zr   0.03595   0.45407   0.23766   1.000
    Zr137   Zr   0.03798   0.95464   0.23729   1.000
    Zr138   Zr   0.53931   0.45234   0.23630   1.000
    Zr139   Zr   0.53951   0.95367   0.23789   1.000
    Zr140   Zr   0.08069   0.40434   0.34442   1.000
    Zr141   Zr   0.08170   0.90568   0.34485   1.000
    Zr142   Zr   0.58253   0.40522   0.34529   1.000
    Zr143   Zr   0.58353   0.90524   0.34580   1.000
    Zr144   Zr   0.47397   0.21862   0.48480   1.000
    Zr145   Zr   0.47383   0.71848   0.48461   1.000
    Zr146   Zr   0.97233   0.21836   0.48464   1.000
    Zr147   Zr   0.97457   0.71900   0.48436   1.000
    Zr148   Zr   0.20885   0.48997   0.84067   1.000
    Zr149   Zr   0.20425   0.98647   0.83770   1.000
    Zr150   Zr   0.70318   0.48484   0.83411   1.000
    Zr151   Zr   0.70412   0.98410   0.83500   1.000
    Zr152   Zr   0.20971   0.04412   0.73939   1.000
    Zr153   Zr   0.20707   0.54279   0.73671   1.000
    Zr154   Zr   0.71076   0.04231   0.73759   1.000
    Zr155   Zr   0.70899   0.54265   0.73605   1.000
    Zr156   Zr   0.42359   0.30494   0.76326   1.000
    Zr157   Zr   0.42298   0.80436   0.76456   1.000
    Zr158   Zr   0.92416   0.30475   0.76310   1.000
    Zr159   Zr   0.92553   0.80338   0.76437   1.000
    Zr160   Zr   0.40572   0.34555   0.64920   1.000
    Zr161   Zr   0.40598   0.84615   0.65134   1.000
    Zr162   Zr   0.90660   0.34535   0.64914   1.000
    Zr163   Zr   0.90901   0.84526   0.65117   1.000
    Zr164   Zr   0.23242   0.03552   0.51437   1.000
    Zr165   Zr   0.23116   0.53368   0.51126   1.000
    Zr166   Zr   0.73459   0.03361   0.51309   1.000
    Zr167   Zr   0.73320   0.53341   0.51132   1.000
    Zr168   Zr   0.21483   0.23667   0.83710   1.000
    Zr169   Zr   0.21399   0.73690   0.83777   1.000
    Zr170   Zr   0.71543   0.23492   0.83496   1.000
    Zr171   Zr   0.71423   0.73401   0.83387   1.000
    Zr172   Zr   0.16085   0.29487   0.73968   1.000
    Zr173   Zr   0.16318   0.79389   0.73789   1.000
    Zr174   Zr   0.66070   0.29390   0.73859   1.000
    Zr175   Zr   0.66007   0.79318   0.73736   1.000
    Zr176   Zr   0.46118   0.05094   0.76131   1.000
    Zr177   Zr   0.45881   0.55042   0.76052   1.000
    Zr178   Zr   0.96138   0.05113   0.76197   1.000
    Zr179   Zr   0.96181   0.54916   0.75817   1.000
    Zr180   Zr   0.41882   0.09724   0.65155   1.000
    Zr181   Zr   0.41651   0.59674   0.65079   1.000
    Zr182   Zr   0.92007   0.09592   0.65104   1.000
    Zr183   Zr   0.91943   0.59649   0.64920   1.000
    Zr184   Zr   0.02573   0.28236   0.51202   1.000
    Zr185   Zr   0.02696   0.78375   0.51170   1.000
    Zr186   Zr   0.52592   0.28366   0.51249   1.000
    Zr187   Zr   0.52529   0.78384   0.51262   1.000
    Zr188   Zr   0.28860   0.01234   0.15703   1.000
    Zr189   Zr   0.29065   0.51181   0.15561   1.000
    Zr190   Zr   0.78841   0.01042   0.15399   1.000
    Zr191   Zr   0.78804   0.51031   0.15200   1.000
    Zr192   Zr   0.29105   0.45809   0.25860   1.000
    Zr193   Zr   0.29327   0.96035   0.26239   1.000
    Zr194   Zr   0.79214   0.45756   0.25749   1.000
    Zr195   Zr   0.79356   0.95812   0.25926   1.000
    Zr196   Zr   0.07622   0.19962   0.23476   1.000
    Zr197   Zr   0.07564   0.69838   0.23176   1.000
    Zr198   Zr   0.57840   0.19982   0.23467   1.000
    Zr199   Zr   0.57984   0.70078   0.23498   1.000
    Zr200   Zr   0.09104   0.15691   0.34715   1.000
    Zr201   Zr   0.09143   0.65628   0.34474   1.000
    Zr202   Zr   0.59284   0.15612   0.34643   1.000
    Zr203   Zr   0.59367   0.65610   0.34610   1.000
    Zr204   Zr   0.26598   0.46682   0.48284   1.000
    Zr205   Zr   0.26673   0.96835   0.48586   1.000
    Zr206   Zr   0.76833   0.46678   0.48279   1.000
    Zr207   Zr   0.76945   0.96676   0.48471   1.000
    Zr208   Zr   0.35286   0.29529   0.19424   1.000
    Zr209   Zr   0.35236   0.79732   0.19636   1.000
    Zr210   Zr   0.85173   0.29423   0.19239   1.000
    Zr211   Zr   0.85297   0.79478   0.19264   1.000
    Zr212   Zr   0.38304   0.26097   0.26208   1.000
    Zr213   Zr   0.38539   0.75960   0.26044   1.000
    Zr214   Zr   0.88132   0.26041   0.26076   1.000
    Zr215   Zr   0.88281   0.76076   0.26080   1.000
    Zr216   Zr   0.27799   0.20641   0.19551   1.000
    Zr217   Zr   0.27740   0.70867   0.19829   1.000
    Zr218   Zr   0.77717   0.20490   0.19294   1.000
    Zr219   Zr   0.77866   0.70516   0.19307   1.000
    Zr220   Zr   0.24178   0.27945   0.08793   1.000
    Zr221   Zr   0.23694   0.78894   0.09828   1.000
    Zr222   Zr   0.74152   0.27748   0.08488   1.000
    Zr223   Zr   0.74260   0.77783   0.08522   1.000
    Zr224   Zr   0.49220   0.40070   0.23818   1.000
    Zr225   Zr   0.49245   0.90188   0.23953   1.000
    Zr226   Zr   0.98945   0.40161   0.23837   1.000
    Zr227   Zr   0.99135   0.90217   0.23782   1.000
    Zr228   Zr   0.01889   0.36959   0.30771   1.000
    Zr229   Zr   0.02016   0.87066   0.30770   1.000
    Zr230   Zr   0.52073   0.37036   0.30891   1.000
    Zr231   Zr   0.52150   0.87072   0.30960   1.000
    Zr232   Zr   0.09412   0.45752   0.30343   1.000
    Zr233   Zr   0.09555   0.95865   0.30378   1.000
    Zr234   Zr   0.59680   0.45697   0.30284   1.000
    Zr235   Zr   0.59750   0.95755   0.30392   1.000
    Zr236   Zr   0.02300   0.49904   0.17961   1.000
    Zr237   Zr   0.02567   0.99902   0.17862   1.000
    Zr238   Zr   0.52742   0.49527   0.17628   1.000
    Zr239   Zr   0.52709   0.99733   0.17859   1.000
    Zr240   Zr   0.25401   0.45622   0.80334   1.000
    Zr241   Zr   0.25357   0.95561   0.80419   1.000
    Zr242   Zr   0.75301   0.45438   0.80111   1.000
    Zr243   Zr   0.75368   0.95323   0.80193   1.000
    Zr244   Zr   0.25179   0.49038   0.73534   1.000
    Zr245   Zr   0.25605   0.99302   0.73987   1.000
    Zr246   Zr   0.75578   0.49190   0.73694   1.000
    Zr247   Zr   0.75694   0.99104   0.73817   1.000
    Zr248   Zr   0.17615   0.04272   0.79880   1.000
    Zr249   Zr   0.17865   0.54483   0.80046   1.000
    Zr250   Zr   0.67661   0.04070   0.79649   1.000
    Zr251   Zr   0.67489   0.54090   0.79500   1.000
    Zr252   Zr   0.19266   0.47156   0.90745   1.000
    Zr253   Zr   0.18276   0.96277   0.89881   1.000
    Zr254   Zr   0.68143   0.46088   0.89495   1.000
    Zr255   Zr   0.68193   0.96009   0.89560   1.000
    Zr256   Zr   0.37513   0.35607   0.76117   1.000
    Zr257   Zr   0.37556   0.85634   0.76330   1.000
    Zr258   Zr   0.87592   0.35612   0.76101   1.000
    Zr259   Zr   0.87705   0.85458   0.76228   1.000
    Zr260   Zr   0.36374   0.38170   0.68670   1.000
    Zr261   Zr   0.36469   0.88270   0.68936   1.000
    Zr262   Zr   0.86470   0.38168   0.68655   1.000
    Zr263   Zr   0.86659   0.88099   0.68830   1.000
    Zr264   Zr   0.44412   0.29696   0.69398   1.000
    Zr265   Zr   0.44342   0.79658   0.69521   1.000
    Zr266   Zr   0.94475   0.29667   0.69386   1.000
    Zr267   Zr   0.94685   0.79618   0.69550   1.000
    Zr268   Zr   0.44532   0.26551   0.82582   1.000
    Zr269   Zr   0.44375   0.76400   0.82641   1.000
    Zr270   Zr   0.94560   0.26521   0.82555   1.000
    Zr271   Zr   0.94651   0.76340   0.82647   1.000
    Zr272   Zr   0.14881   0.20577   0.80393   1.000
    Zr273   Zr   0.14886   0.70538   0.80189   1.000
    Zr274   Zr   0.64924   0.20420   0.80226   1.000
    Zr275   Zr   0.64786   0.70368   0.80101   1.000
    Zr276   Zr   0.11455   0.24356   0.74014   1.000
    Zr277   Zr   0.11667   0.74229   0.73679   1.000
    Zr278   Zr   0.61444   0.24260   0.73919   1.000
    Zr279   Zr   0.61347   0.74213   0.73788   1.000
    Zr280   Zr   0.22385   0.29331   0.79867   1.000
    Zr281   Zr   0.22450   0.79315   0.79930   1.000
    Zr282   Zr   0.72414   0.29183   0.79674   1.000
    Zr283   Zr   0.72337   0.79081   0.79564   1.000
    Zr284   Zr   0.26644   0.21258   0.89760   1.000
    Zr285   Zr   0.26377   0.71416   0.90081   1.000
    Zr286   Zr   0.76748   0.21047   0.89474   1.000
    Zr287   Zr   0.76603   0.70948   0.89375   1.000
    Zr288   Zr   0.00745   0.10418   0.76121   1.000
    Zr289   Zr   0.00845   0.60154   0.75754   1.000
    Zr290   Zr   0.50772   0.10352   0.76030   1.000
    Zr291   Zr   0.50531   0.60309   0.75960   1.000
    Zr292   Zr   0.47977   0.13301   0.68880   1.000
    Zr293   Zr   0.47739   0.63261   0.68810   1.000
    Zr294   Zr   0.98028   0.13263   0.68889   1.000
    Zr295   Zr   0.98057   0.63194   0.68680   1.000
    Zr296   Zr   0.40456   0.04548   0.69388   1.000
    Zr297   Zr   0.40221   0.54485   0.69302   1.000
    Zr298   Zr   0.90568   0.04445   0.69368   1.000
    Zr299   Zr   0.90507   0.54428   0.69093   1.000
    Zr300   Zr   0.47278   0.00816   0.82116   1.000
    Zr301   Zr   0.47058   0.50779   0.82054   1.000
    Zr302   Zr   0.97264   0.00898   0.82240   1.000
    Zr303   Zr   0.97356   0.50573   0.81766   1.000
    Zr304   Zr   0.24490   0.04638   0.19589   1.000
    Zr305   Zr   0.24526   0.54549   0.19270   1.000
    Zr306   Zr   0.74524   0.04460   0.19348   1.000
    Zr307   Zr   0.74493   0.54466   0.19222   1.000
    Zr308   Zr   0.24880   0.01291   0.26451   1.000
    Zr309   Zr   0.24652   0.51070   0.26002   1.000
    Zr310   Zr   0.74949   0.01095   0.26208   1.000
    Zr311   Zr   0.74848   0.51067   0.26041   1.000
    Zr312   Zr   0.32022   0.45642   0.19540   1.000
    Zr313   Zr   0.32000   0.95781   0.19735   1.000
    Zr314   Zr   0.81859   0.45506   0.19227   1.000
    Zr315   Zr   0.81966   0.95555   0.19370   1.000
    Zr316   Zr   0.30230   0.02962   0.08836   1.000
    Zr317   Zr   0.30748   0.53050   0.08930   1.000
    Zr318   Zr   0.80193   0.02782   0.08530   1.000
    Zr319   Zr   0.80205   0.52792   0.08443   1.000
    Zr320   Zr   0.12579   0.14960   0.23791   1.000
    Zr321   Zr   0.12395   0.64696   0.23398   1.000
    Zr322   Zr   0.62690   0.14890   0.23677   1.000
    Zr323   Zr   0.62782   0.64949   0.23649   1.000
    Zr324   Zr   0.13501   0.12225   0.31104   1.000
    Zr325   Zr   0.13395   0.62035   0.30778   1.000
    Zr326   Zr   0.63594   0.12091   0.30950   1.000
    Zr327   Zr   0.63640   0.62083   0.30876   1.000
    Zr328   Zr   0.05318   0.20586   0.30251   1.000
    Zr329   Zr   0.05399   0.70566   0.30044   1.000
    Zr330   Zr   0.55574   0.20603   0.30267   1.000
    Zr331   Zr   0.55720   0.70664   0.30300   1.000
    Zr332   Zr   0.05567   0.23974   0.17241   1.000
    Zr333   Zr   0.05508   0.73837   0.16960   1.000
    Zr334   Zr   0.55853   0.24090   0.17310   1.000
    Zr335   Zr   0.56039   0.74246   0.17393   1.000
    Zr336   Zr   0.44987   0.20246   0.41009   1.000
    Zr337   Zr   0.45046   0.70213   0.40988   1.000
    Zr338   Zr   0.94701   0.20284   0.40997   1.000
    Zr339   Zr   0.94976   0.70294   0.40971   1.000
    Zr340   Zr   0.45974   0.18630   0.53921   1.000
    Zr341   Zr   0.45925   0.68614   0.53885   1.000
    Zr342   Zr   0.95833   0.18623   0.53930   1.000
    Zr343   Zr   0.96075   0.68671   0.53900   1.000
    Zr344   Zr   0.24680   0.05210   0.58915   1.000
    Zr345   Zr   0.24482   0.54991   0.58605   1.000
    Zr346   Zr   0.74836   0.04993   0.58783   1.000
    Zr347   Zr   0.74704   0.54973   0.58614   1.000
    Zr348   Zr   0.19274   0.06909   0.46050   1.000
    Zr349   Zr   0.19177   0.56736   0.45734   1.000
    Zr350   Zr   0.69501   0.06726   0.45917   1.000
    Zr351   Zr   0.69337   0.56688   0.45752   1.000
    Zr352   Zr   0.05173   0.29741   0.58674   1.000
    Zr353   Zr   0.05192   0.79964   0.58636   1.000
    Zr354   Zr   0.55036   0.29959   0.58725   1.000
    Zr355   Zr   0.54884   0.80006   0.58740   1.000
    Zr356   Zr   0.03922   0.31503   0.45750   1.000
    Zr357   Zr   0.04062   0.81614   0.45700   1.000
    Zr358   Zr   0.53979   0.31626   0.45810   1.000
    Zr359   Zr   0.53967   0.81636   0.45845   1.000
    Zr360   Zr   0.25194   0.45034   0.40809   1.000
    Zr361   Zr   0.25234   0.95173   0.41113   1.000
    Zr362   Zr   0.75432   0.45044   0.40804   1.000
    Zr363   Zr   0.75536   0.95020   0.40998   1.000
    Zr364   Zr   0.30575   0.43340   0.53678   1.000
    Zr365   Zr   0.30654   0.93486   0.53973   1.000
    Zr366   Zr   0.80826   0.43345   0.53670   1.000
    Zr367   Zr   0.80931   0.93346   0.53875   1.000
    O368    O    0.80370   0.50607   0.06538   1.000
    O369    O    0.73019   0.25567   0.06585   1.000
    O370    O    0.80366   0.00594   0.06625   1.000
    O371    O    0.73125   0.75603   0.06621   1.000
    O372    O    0.23009   0.25774   0.06896   1.000
    O373    O    0.30400   0.00775   0.06941   1.000
    O374    O    0.31084   0.50887   0.07094   1.000
    O375    O    0.78671   0.54746   0.07058   1.000
    O376    O    0.75001   0.29713   0.07103   1.000
    O377    O    0.75096   0.79752   0.07132   1.000
    O378    O    0.78657   0.04731   0.07144   1.000
    O379    O    0.29075   0.54870   0.07413   1.000
    O380    O    0.25048   0.29885   0.07382   1.000
    O381    O    0.28683   0.04901   0.07437   1.000
    O382    O    0.24518   0.80630   0.08143   1.000
    O383    O    0.21643   0.77151   0.08369   1.000
    O384    O    0.79504   0.51912   0.11821   1.000
    O385    O    0.76521   0.26872   0.11904   1.000
    O386    O    0.76639   0.76911   0.11934   1.000
    O387    O    0.79517   0.01912   0.11964   1.000
    O388    O    0.26567   0.27047   0.12181   1.000
    O389    O    0.29545   0.02098   0.12269   1.000
    O390    O    0.29907   0.52115   0.12245   1.000
    O391    O    0.26211   0.77731   0.12944   1.000
    O392    O    0.05839   0.72747   0.14281   1.000
    O393    O    0.05801   0.22824   0.14553   1.000
    O394    O    0.56031   0.22959   0.14594   1.000
    O395    O    0.56196   0.73120   0.14667   1.000
    O396    O    0.51237   0.48423   0.14894   1.000
    O397    O    0.01063   0.98854   0.15105   1.000
    O398    O    0.51164   0.98672   0.15125   1.000
    O399    O    0.00823   0.48875   0.15185   1.000
    O400    O    0.76649   0.52749   0.17211   1.000
    O401    O    0.80331   0.48269   0.17213   1.000
    O402    O    0.82032   0.27709   0.17279   1.000
    O403    O    0.78304   0.23243   0.17307   1.000
    O404    O    0.82158   0.77759   0.17305   1.000
    O405    O    0.78442   0.73278   0.17326   1.000
    O406    O    0.76683   0.02751   0.17373   1.000
    O407    O    0.80403   0.98299   0.17384   1.000
    O408    O    0.26796   0.52865   0.17415   1.000
    O409    O    0.30544   0.48412   0.17550   1.000
    O410    O    0.32122   0.27839   0.17497   1.000
    O411    O    0.28378   0.23395   0.17560   1.000
    O412    O    0.26675   0.02936   0.17646   1.000
    O413    O    0.30430   0.98508   0.17719   1.000
    O414    O    0.31982   0.78150   0.17848   1.000
    O415    O    0.28234   0.73718   0.17945   1.000
    O416    O    0.03316   0.75355   0.16815   1.000
    O417    O    0.72013   0.58959   0.17950   1.000
    O418    O    0.73699   0.66984   0.17993   1.000
    O419    O    0.66157   0.64200   0.20164   1.000
    O420    O    0.73582   0.16930   0.18005   1.000
    O421    O    0.71985   0.08915   0.18032   1.000
    O422    O    0.66068   0.14130   0.20196   1.000
    O423    O    0.85368   0.41979   0.17976   1.000
    O424    O    0.87025   0.33937   0.17982   1.000
    O425    O    0.93911   0.39306   0.20281   1.000
    O426    O    0.87153   0.84011   0.18026   1.000
    O427    O    0.85487   0.92049   0.18079   1.000
    O428    O    0.94072   0.89380   0.20285   1.000
    O429    O    0.03335   0.25438   0.17085   1.000
    O430    O    0.22068   0.59063   0.18108   1.000
    O431    O    0.23675   0.67222   0.18388   1.000
    O432    O    0.16002   0.64136   0.20172   1.000
    O433    O    0.37164   0.34044   0.18191   1.000
    O434    O    0.35532   0.42101   0.18249   1.000
    O435    O    0.44131   0.39315   0.20388   1.000
    O436    O    0.06536   0.71838   0.20068   1.000
    O437    O    0.23636   0.17116   0.18266   1.000
    O438    O    0.21981   0.09114   0.18285   1.000
    O439    O    0.16025   0.14275   0.20386   1.000
    O440    O    0.53677   0.25625   0.17209   1.000
    O441    O    0.37133   0.84239   0.18428   1.000
    O442    O    0.35515   0.92263   0.18477   1.000
    O443    O    0.44138   0.89467   0.20586   1.000
    O444    O    0.53871   0.75788   0.17312   1.000
    O445    O    0.06594   0.21968   0.20358   1.000
    O446    O    0.56847   0.22036   0.20388   1.000
    O447    O    0.57011   0.72162   0.20445   1.000
    O448    O    0.54836   0.51136   0.17551   1.000
    O449    O    0.53336   0.47380   0.20629   1.000
    O450    O    0.54792   0.01355   0.17777   1.000
    O451    O    0.04652   0.01542   0.17824   1.000
    O452    O    0.53330   0.97550   0.20824   1.000
    O453    O    0.03183   0.97683   0.20795   1.000
    O454    O    0.04334   0.51636   0.18004   1.000
    O455    O    0.02947   0.47656   0.20863   1.000
    O456    O    0.74671   0.52767   0.22631   1.000
    O457    O    0.80537   0.45631   0.22488   1.000
    O458    O    0.86653   0.27732   0.22657   1.000
    O459    O    0.86789   0.77777   0.22672   1.000
    O460    O    0.24589   0.52809   0.22636   1.000
    O461    O    0.80643   0.20618   0.22551   1.000
    O462    O    0.80799   0.70641   0.22553   1.000
    O463    O    0.74737   0.02777   0.22778   1.000
    O464    O    0.80661   0.95684   0.22648   1.000
    O465    O    0.36795   0.27813   0.22816   1.000
    O466    O    0.30563   0.45726   0.22700   1.000
    O467    O    0.30759   0.20737   0.22770   1.000
    O468    O    0.24685   0.02965   0.23020   1.000
    O469    O    0.36887   0.77846   0.22840   1.000
    O470    O    0.30663   0.95908   0.22987   1.000
    O471    O    0.30832   0.70811   0.22864   1.000
    O472    O    0.09979   0.67267   0.23287   1.000
    O473    O    0.06482   0.70202   0.26610   1.000
    O474    O    0.12895   0.63365   0.27088   1.000
    O475    O    0.60265   0.17436   0.23572   1.000
    O476    O    0.56707   0.20292   0.26867   1.000
    O477    O    0.10100   0.17461   0.23633   1.000
    O478    O    0.06470   0.20274   0.26863   1.000
    O479    O    0.60383   0.67513   0.23573   1.000
    O480    O    0.56852   0.70371   0.26899   1.000
    O481    O    0.51575   0.42652   0.23724   1.000
    O482    O    0.56805   0.45465   0.26957   1.000
    O483    O    0.63211   0.63516   0.27262   1.000
    O484    O    0.63142   0.13491   0.27313   1.000
    O485    O    0.01467   0.92840   0.23755   1.000
    O486    O    0.06677   0.95664   0.27053   1.000
    O487    O    0.01270   0.42784   0.23801   1.000
    O488    O    0.06503   0.45580   0.27054   1.000
    O489    O    0.00576   0.88641   0.27276   1.000
    O490    O    0.51598   0.92778   0.23871   1.000
    O491    O    0.56851   0.95561   0.27090   1.000
    O492    O    0.13040   0.13592   0.27447   1.000
    O493    O    0.50646   0.38553   0.27354   1.000
    O494    O    0.00417   0.38560   0.27304   1.000
    O495    O    0.50698   0.88630   0.27456   1.000
    O496    O    0.77031   0.48412   0.25895   1.000
    O497    O    0.79836   0.43938   0.28014   1.000
    O498    O    0.86007   0.73421   0.25940   1.000
    O499    O    0.84214   0.68948   0.28074   1.000
    O500    O    0.85850   0.23393   0.25942   1.000
    O501    O    0.84040   0.18935   0.28087   1.000
    O502    O    0.26878   0.48440   0.25931   1.000
    O503    O    0.29664   0.43980   0.28119   1.000
    O504    O    0.36231   0.73358   0.25972   1.000
    O505    O    0.34483   0.68845   0.28069   1.000
    O506    O    0.77152   0.98454   0.26067   1.000
    O507    O    0.80003   0.94006   0.28207   1.000
    O508    O    0.36011   0.23465   0.26098   1.000
    O509    O    0.34205   0.19011   0.28254   1.000
    O510    O    0.21465   0.51804   0.30001   1.000
    O511    O    0.71673   0.51806   0.30022   1.000
    O512    O    0.43677   0.76737   0.30052   1.000
    O513    O    0.93293   0.26774   0.30044   1.000
    O514    O    0.93466   0.76813   0.30025   1.000
    O515    O    0.71776   0.01840   0.30204   1.000
    O516    O    0.43496   0.26808   0.30128   1.000
    O517    O    0.27103   0.98663   0.26345   1.000
    O518    O    0.29963   0.94233   0.28525   1.000
    O519    O    0.21638   0.02011   0.30382   1.000
    O520    O    0.02025   0.74058   0.32007   1.000
    O521    O    0.07271   0.68097   0.32259   1.000
    O522    O    0.01886   0.24046   0.32132   1.000
    O523    O    0.07211   0.18139   0.32483   1.000
    O524    O    0.52131   0.24061   0.32158   1.000
    O525    O    0.57429   0.18107   0.32455   1.000
    O526    O    0.64088   0.49120   0.32144   1.000
    O527    O    0.58966   0.43109   0.32406   1.000
    O528    O    0.52268   0.74088   0.32180   1.000
    O529    O    0.57543   0.68137   0.32455   1.000
    O530    O    0.13845   0.49145   0.32171   1.000
    O531    O    0.08740   0.43093   0.32392   1.000
    O532    O    0.13976   0.99298   0.32346   1.000
    O533    O    0.08863   0.93216   0.32431   1.000
    O534    O    0.64177   0.99170   0.32296   1.000
    O535    O    0.59052   0.93139   0.32486   1.000
    O536    O    0.00334   0.82307   0.32370   1.000
    O537    O    0.05093   0.88817   0.32627   1.000
    O538    O    0.00171   0.32233   0.32392   1.000
    O539    O    0.04979   0.38697   0.32606   1.000
    O540    O    0.15837   0.57287   0.32389   1.000
    O541    O    0.11269   0.63832   0.32626   1.000
    O542    O    0.66068   0.57314   0.32440   1.000
    O543    O    0.61503   0.63847   0.32743   1.000
    O544    O    0.50380   0.32278   0.32470   1.000
    O545    O    0.55163   0.38779   0.32710   1.000
    O546    O    0.66099   0.07339   0.32575   1.000
    O547    O    0.61439   0.13852   0.32796   1.000
    O548    O    0.50483   0.82292   0.32510   1.000
    O549    O    0.55252   0.88798   0.32770   1.000
    O550    O    0.15949   0.07478   0.32709   1.000
    O551    O    0.11303   0.13958   0.32909   1.000
    O552    O    0.96814   0.73922   0.37470   1.000
    O553    O    0.01357   0.79581   0.39835   1.000
    O554    O    0.21736   0.48786   0.37404   1.000
    O555    O    0.18728   0.54637   0.39867   1.000
    O556    O    0.71964   0.48794   0.37404   1.000
    O557    O    0.68917   0.54616   0.39878   1.000
    O558    O    0.96577   0.23895   0.37505   1.000
    O559    O    0.01188   0.29505   0.39881   1.000
    O560    O    0.46838   0.23883   0.37529   1.000
    O561    O    0.51333   0.29572   0.39929   1.000
    O562    O    0.46931   0.73863   0.37524   1.000
    O563    O    0.51391   0.79575   0.39952   1.000
    O564    O    0.72070   0.98803   0.37599   1.000
    O565    O    0.69052   0.04656   0.40058   1.000
    O566    O    0.21815   0.98952   0.37713   1.000
    O567    O    0.18835   0.04821   0.40182   1.000
    O568    O    0.09839   0.39777   0.37252   1.000
    O569    O    0.08934   0.65147   0.37417   1.000
    O570    O    0.09917   0.89929   0.37315   1.000
    O571    O    0.59995   0.39917   0.37377   1.000
    O572    O    0.60117   0.89889   0.37403   1.000
    O573    O    0.59118   0.65065   0.37519   1.000
    O574    O    0.59043   0.15088   0.37561   1.000
    O575    O    0.08860   0.15178   0.37637   1.000
    O576    O    0.76133   0.45861   0.44541   1.000
    O577    O    0.25896   0.45858   0.44546   1.000
    O578    O    0.96217   0.71097   0.44703   1.000
    O579    O    0.46215   0.71031   0.44724   1.000
    O580    O    0.95967   0.21060   0.44730   1.000
    O581    O    0.76240   0.95848   0.44734   1.000
    O582    O    0.46192   0.21054   0.44744   1.000
    O583    O    0.25954   0.96004   0.44849   1.000
    O584    O    0.03379   0.79994   0.48435   1.000
    O585    O    0.21146   0.55052   0.48430   1.000
    O586    O    0.03248   0.29869   0.48476   1.000
    O587    O    0.71328   0.55014   0.48442   1.000
    O588    O    0.53286   0.29996   0.48529   1.000
    O589    O    0.53248   0.80010   0.48553   1.000
    O590    O    0.71480   0.05044   0.48613   1.000
    O591    O    0.21258   0.05231   0.48743   1.000
    O592    O    0.75077   0.50009   0.49705   1.000
    O593    O    0.78830   0.45011   0.50974   1.000
    O594    O    0.24857   0.50025   0.49705   1.000
    O595    O    0.28587   0.45011   0.50981   1.000
    O596    O    0.00077   0.75137   0.49803   1.000
    O597    O    0.96766   0.70285   0.51168   1.000
    O598    O    0.49956   0.75116   0.49861   1.000
    O599    O    0.46654   0.70231   0.51173   1.000
    O600    O    0.99903   0.25036   0.49833   1.000
    O601    O    0.96533   0.20230   0.51197   1.000
    O602    O    0.75202   0.00018   0.49890   1.000
    O603    O    0.78938   0.95011   0.51173   1.000
    O604    O    0.49995   0.25114   0.49864   1.000
    O605    O    0.46685   0.20246   0.51200   1.000
    O606    O    0.24958   0.00194   0.50011   1.000
    O607    O    0.28664   0.95161   0.51279   1.000
    O608    O    0.23799   0.54179   0.54865   1.000
    O609    O    0.74012   0.54157   0.54873   1.000
    O610    O    0.03944   0.79169   0.54903   1.000
    O611    O    0.03873   0.28989   0.54938   1.000
    O612    O    0.53814   0.29163   0.54987   1.000
    O613    O    0.53706   0.79195   0.55001   1.000
    O614    O    0.74147   0.04177   0.55046   1.000
    O615    O    0.23961   0.04381   0.55176   1.000
    O616    O    0.81258   0.45483   0.59536   1.000
    O617    O    0.31008   0.45454   0.59544   1.000
    O618    O    0.81387   0.95443   0.59756   1.000
    O619    O    0.48509   0.70675   0.59770   1.000
    O620    O    0.98753   0.70697   0.59770   1.000
    O621    O    0.48603   0.20694   0.59795   1.000
    O622    O    0.98555   0.20673   0.59801   1.000
    O623    O    0.31160   0.95613   0.59840   1.000
    O624    O    0.27961   0.51280   0.62007   1.000
    O625    O    0.78197   0.51297   0.62008   1.000
    O626    O    0.03312   0.76343   0.62138   1.000
    O627    O    0.03224   0.26232   0.62173   1.000
    O628    O    0.53134   0.26359   0.62197   1.000
    O629    O    0.52989   0.76371   0.62198   1.000
    O630    O    0.78339   0.01266   0.62210   1.000
    O631    O    0.28173   0.01475   0.62311   1.000
    O632    O    0.90814   0.34979   0.61937   1.000
    O633    O    0.40721   0.35001   0.61947   1.000
    O634    O    0.90234   0.60250   0.62053   1.000
    O635    O    0.40760   0.85081   0.62168   1.000
    O636    O    0.91089   0.85004   0.62163   1.000
    O637    O    0.90330   0.10123   0.62193   1.000
    O638    O    0.39941   0.60247   0.62200   1.000
    O639    O    0.40171   0.10298   0.62277   1.000
    O640    O    0.88565   0.36352   0.66784   1.000
    O641    O    0.92567   0.32101   0.67150   1.000
    O642    O    0.95000   0.61422   0.66800   1.000
    O643    O    0.91225   0.57039   0.67006   1.000
    O644    O    0.38473   0.36362   0.66795   1.000
    O645    O    0.42492   0.32125   0.67159   1.000
    O646    O    0.44695   0.61467   0.66944   1.000
    O647    O    0.40936   0.57080   0.67190   1.000
    O648    O    0.95018   0.11428   0.66996   1.000
    O649    O    0.91288   0.07018   0.67236   1.000
    O650    O    0.88780   0.86313   0.66973   1.000
    O651    O    0.92793   0.82072   0.67333   1.000
    O652    O    0.38534   0.86443   0.67035   1.000
    O653    O    0.42470   0.82137   0.67327   1.000
    O654    O    0.44930   0.11513   0.67017   1.000
    O655    O    0.41169   0.07136   0.67271   1.000
    O656    O    0.84080   0.42895   0.67029   1.000
    O657    O    0.86099   0.51025   0.67248   1.000
    O658    O    0.78634   0.48405   0.69548   1.000
    O659    O    0.33907   0.42869   0.67040   1.000
    O660    O    0.35831   0.51027   0.67356   1.000
    O661    O    0.28310   0.48303   0.69472   1.000
    O662    O    0.84250   0.92819   0.67233   1.000
    O663    O    0.86205   0.00992   0.67502   1.000
    O664    O    0.78768   0.98322   0.69727   1.000
    O665    O    0.99744   0.67958   0.67160   1.000
    O666    O    0.98058   0.76171   0.67595   1.000
    O667    O    0.06549   0.73476   0.69659   1.000
    O668    O    0.49416   0.67998   0.67233   1.000
    O669    O    0.47718   0.76197   0.67588   1.000
    O670    O    0.56220   0.73475   0.69722   1.000
    O671    O    0.49605   0.18030   0.67275   1.000
    O672    O    0.47823   0.26227   0.67534   1.000
    O673    O    0.56339   0.23509   0.69794   1.000
    O674    O    0.99652   0.17993   0.67280   1.000
    O675    O    0.97875   0.26195   0.67529   1.000
    O676    O    0.06366   0.23539   0.69843   1.000
    O677    O    0.34067   0.93005   0.67321   1.000
    O678    O    0.36061   0.01145   0.67547   1.000
    O679    O    0.28636   0.98521   0.69847   1.000
    O680    O    0.87031   0.36890   0.72378   1.000
    O681    O    0.36943   0.36889   0.72393   1.000
    O682    O    0.99451   0.61674   0.72217   1.000
    O683    O    0.49135   0.61785   0.72385   1.000
    O684    O    0.87182   0.86778   0.72529   1.000
    O685    O    0.49375   0.11827   0.72455   1.000
    O686    O    0.99387   0.11840   0.72505   1.000
    O687    O    0.37012   0.86952   0.72633   1.000
    O688    O    0.93344   0.54672   0.72455   1.000
    O689    O    0.20114   0.56088   0.71390   1.000
    O690    O    0.70419   0.56150   0.71410   1.000
    O691    O    0.43051   0.54764   0.72677   1.000
    O692    O    0.93353   0.04779   0.72782   1.000
    O693    O    0.15788   0.81270   0.71584   1.000
    O694    O    0.93445   0.30071   0.72848   1.000
    O695    O    0.43287   0.04821   0.72759   1.000
    O696    O    0.70620   0.06127   0.71576   1.000
    O697    O    0.43386   0.30095   0.72862   1.000
    O698    O    0.65409   0.81234   0.71576   1.000
    O699    O    0.43320   0.80047   0.72988   1.000
    O700    O    0.65458   0.31304   0.71698   1.000
    O701    O    0.20489   0.06297   0.71742   1.000
    O702    O    0.93619   0.79978   0.72993   1.000
    O703    O    0.15495   0.31381   0.71783   1.000
    O704    O    0.22943   0.51658   0.73602   1.000
    O705    O    0.25290   0.47330   0.76934   1.000
    O706    O    0.73238   0.51727   0.73649   1.000
    O707    O    0.69194   0.54177   0.76552   1.000
    O708    O    0.19286   0.54381   0.76858   1.000
    O709    O    0.13993   0.76809   0.73734   1.000
    O710    O    0.13277   0.72383   0.76934   1.000
    O711    O    0.75440   0.47314   0.76902   1.000
    O712    O    0.63677   0.76766   0.73762   1.000
    O713    O    0.69172   0.79199   0.76650   1.000
    O714    O    0.73385   0.01667   0.73788   1.000
    O715    O    0.69368   0.04150   0.76704   1.000
    O716    O    0.63066   0.72291   0.76944   1.000
    O717    O    0.19384   0.79352   0.76859   1.000
    O718    O    0.75531   0.97213   0.77005   1.000
    O719    O    0.63757   0.26825   0.73889   1.000
    O720    O    0.69242   0.29286   0.76766   1.000
    O721    O    0.63184   0.22340   0.77072   1.000
    O722    O    0.23288   0.01857   0.73963   1.000
    O723    O    0.19293   0.04342   0.76909   1.000
    O724    O    0.13770   0.26921   0.73991   1.000
    O725    O    0.19235   0.29409   0.76917   1.000
    O726    O    0.25481   0.97431   0.77203   1.000
    O727    O    0.13168   0.22466   0.77203   1.000
    O728    O    0.98513   0.57535   0.75785   1.000
    O729    O    0.05912   0.60895   0.79221   1.000
    O730    O    0.96768   0.52745   0.78791   1.000
    O731    O    0.48206   0.57675   0.76006   1.000
    O732    O    0.55704   0.60857   0.79175   1.000
    O733    O    0.48445   0.07723   0.76080   1.000
    O734    O    0.55934   0.10890   0.79300   1.000
    O735    O    0.46469   0.52910   0.79053   1.000
    O736    O    0.90004   0.33044   0.76205   1.000
    O737    O    0.84007   0.36107   0.79358   1.000
    O738    O    0.39936   0.33051   0.76221   1.000
    O739    O    0.33977   0.36147   0.79425   1.000
    O740    O    0.98442   0.07765   0.76159   1.000
    O741    O    0.05882   0.11017   0.79423   1.000
    O742    O    0.46698   0.02955   0.79123   1.000
    O743    O    0.96701   0.03005   0.79218   1.000
    O744    O    0.90129   0.82898   0.76332   1.000
    O745    O    0.84066   0.85936   0.79421   1.000
    O746    O    0.93488   0.28498   0.79432   1.000
    O747    O    0.43446   0.28522   0.79454   1.000
    O748    O    0.39927   0.83035   0.76393   1.000
    O749    O    0.34007   0.86165   0.79634   1.000
    O750    O    0.93602   0.78339   0.79542   1.000
    O751    O    0.43336   0.78418   0.79548   1.000
    O752    O    0.64183   0.57748   0.80945   1.000
    O753    O    0.68904   0.51287   0.81455   1.000
    O754    O    0.76382   0.82747   0.81089   1.000
    O755    O    0.71880   0.76241   0.81475   1.000
    O756    O    0.64379   0.07749   0.81109   1.000
    O757    O    0.69036   0.01240   0.81574   1.000
    O758    O    0.76417   0.32892   0.81145   1.000
    O759    O    0.71979   0.26337   0.81585   1.000
    O760    O    0.26413   0.33009   0.81300   1.000
    O761    O    0.21934   0.26499   0.81788   1.000
    O762    O    0.14317   0.07944   0.81302   1.000
    O763    O    0.19020   0.01459   0.81825   1.000
    O764    O    0.26454   0.83006   0.81434   1.000
    O765    O    0.21925   0.76503   0.81853   1.000
    O766    O    0.14422   0.58060   0.81367   1.000
    O767    O    0.19375   0.51740   0.82056   1.000
    O768    O    0.62831   0.65887   0.81245   1.000
    O769    O    0.68104   0.71884   0.81744   1.000
    O770    O    0.77861   0.41020   0.81363   1.000
    O771    O    0.72810   0.46961   0.81761   1.000
    O772    O    0.12932   0.66087   0.81438   1.000
    O773    O    0.18143   0.72114   0.81983   1.000
    O774    O    0.77898   0.90868   0.81403   1.000
    O775    O    0.72890   0.96866   0.81846   1.000
    O776    O    0.63010   0.15924   0.81398   1.000
    O777    O    0.68233   0.21956   0.81861   1.000
    O778    O    0.27922   0.41154   0.81533   1.000
    O779    O    0.23143   0.47310   0.82200   1.000
    O780    O    0.12950   0.16097   0.81559   1.000
    O781    O    0.18182   0.22122   0.82051   1.000
    O782    O    0.27907   0.91129   0.81678   1.000
    O783    O    0.22891   0.97104   0.82094   1.000
    O784    O    0.95323   0.48836   0.81710   1.000
    O785    O    0.98788   0.51661   0.84536   1.000
    O786    O    0.45050   0.49031   0.82035   1.000
    O787    O    0.48618   0.51839   0.84791   1.000
    O788    O    0.45256   0.99079   0.82090   1.000
    O789    O    0.48839   0.01869   0.84856   1.000
    O790    O    0.95255   0.99141   0.82199   1.000
    O791    O    0.98788   0.01978   0.84984   1.000
    O792    O    0.96703   0.24955   0.82617   1.000
    O793    O    0.94278   0.27621   0.85251   1.000
    O794    O    0.46693   0.25007   0.82643   1.000
    O795    O    0.44272   0.27669   0.85281   1.000
    O796    O    0.46485   0.74796   0.82670   1.000
    O797    O    0.44131   0.77491   0.85354   1.000
    O798    O    0.96820   0.74797   0.82762   1.000
    O799    O    0.94315   0.77409   0.85331   1.000
    O800    O    0.74013   0.72174   0.86381   1.000
    O801    O    0.69230   0.47286   0.86453   1.000
    O802    O    0.74146   0.22269   0.86485   1.000
    O803    O    0.69303   0.97209   0.86530   1.000
    O804    O    0.24064   0.22463   0.86735   1.000
    O805    O    0.19351   0.97462   0.86825   1.000
    O806    O    0.23888   0.72553   0.86929   1.000
    O807    O    0.20075   0.48076   0.87406   1.000
    O808    O    0.78744   0.72642   0.90692   1.000
    O809    O    0.75715   0.69404   0.91222   1.000
    O810    O    0.78879   0.22750   0.90794   1.000
    O811    O    0.75865   0.19500   0.91318   1.000
    O812    O    0.66698   0.47804   0.90836   1.000
    O813    O    0.69945   0.44562   0.91334   1.000
    O814    O    0.66735   0.97722   0.90886   1.000
    O815    O    0.69988   0.94479   0.91403   1.000
    O816    O    0.28759   0.22971   0.91104   1.000
    O817    O    0.25753   0.19702   0.91592   1.000
    O818    O    0.16836   0.97996   0.91223   1.000
    O819    O    0.20059   0.94724   0.91707   1.000
    O820    O    0.28451   0.73143   0.91512   1.000
    O821    O    0.25532   0.69697   0.91774   1.000
    O822    O    0.20975   0.45364   0.92272   1.000
    O823    O    0.18918   0.49319   0.92567   1.000
    N824    N    0.85893   0.37118   0.99754   1.000
    O825    O    0.87952   0.37528   0.05626   1.000
    O826    O    0.84868   0.36459   0.93783   1.000
    N827    N    0.14092   0.12193   0.99999   1.000
    O828    O    0.12150   0.11520   0.93991   1.000
    O829    O    0.14920   0.12626   0.05873   1.000
    N830    N    0.36103   0.37187   0.99987   1.000
    O831    O    0.38163   0.37621   0.05851   1.000
    O832    O    0.35023   0.36584   0.93967   1.000
    N833    N    0.35826   0.87308   0.00098   1.000
    O834    O    0.37945   0.87785   0.06014   1.000
    O835    O    0.34839   0.86645   0.94132   1.000
    N836    N    0.85897   0.87042   0.99779   1.000
    O837    O    0.87995   0.87512   0.05655   1.000
    O838    O    0.84858   0.86316   0.93804   1.000
    N839    N    0.64098   0.62062   0.99726   1.000
    O840    O    0.62117   0.61360   0.93706   1.000
    O841    O    0.64945   0.62500   0.05595   1.000
    N842    N    0.14076   0.63102   0.99645   1.000
    O843    O    0.11966   0.62605   0.93793   1.000
    O844    O    0.15125   0.63698   0.05676   1.000
    N845    N    0.64099   0.11958   0.99757   1.000
    O846    O    0.62185   0.11272   0.93774   1.000
    O847    O    0.64920   0.12383   0.05625   1.000
loop_
    _geom_bond_atom_site_label_1
    _geom_bond_atom_site_label_2
    _geom_bond_distance
    _geom_bond_site_symmetry_2
    _ccdc_geom_bond_type
    Zr111  O368      0.51568      .   S
    Zr319  O368      0.51568      .   S
    Zr38   O369      0.51566      .   S
    Zr222  O369      0.51566      .   S
    Zr110  O370      0.51631  1_565   S
    Zr318  O370      0.51631      .   S
    Zr39   O371      0.51544      .   S
    Zr223  O371      0.51544      .   S
    Zr36   O372      0.51549      .   S
    Zr220  O372      0.51549      .   S
    Zr108  O373      0.51511  1_565   S
    Zr316  O373      0.51511      .   S
    Zr109  O374      0.51408      .   S
    Zr317  O374      0.51408      .   S
    Zr107  O375      0.51515      .   S
    Zr319  O375      0.51515      .   S
    Zr34   O376      0.51501      .   S
    Zr222  O376      0.51501      .   S
    Zr35   O377      0.51501      .   S
    Zr223  O377      0.51501      .   S
    Zr106  O378      0.51489      .   S
    Zr318  O378      0.51489      .   S
    Zr105  O379      0.51762      .   S
    Zr317  O379      0.51762      .   S
    Zr32   O380      0.51573      .   S
    Zr220  O380      0.51573      .   S
    Zr104  O381      0.51519      .   S
    Zr316  O381      0.51519      .   S
    Zr33   O382      0.51529      .   S
    Zr221  O382      0.51529      .   S
    Zr37   O383      0.50937      .   S
    Zr221  O383      0.50937      .   S
    Zr319  O384      0.67416      .   S
    Zr191  O384      0.67416      .   S
    Zr222  O385      0.68040      .   S
    Zr130  O385      0.68040      .   S
    Zr223  O386      0.68047      .   S
    Zr131  O386      0.68047      .   S
    Zr318  O387      0.68075      .   S
    Zr190  O387      0.68075      .   S
    Zr220  O388      0.68012      .   S
    Zr128  O388      0.68012      .   S
    Zr316  O389      0.68096      .   S
    Zr188  O389      0.68096      .   S
    Zr317  O390      0.67945      .   S
    Zr189  O390      0.67945      .   S
    Zr221  O391      0.67852      .   S
    Zr129  O391      0.67852      .   S
    Zr117  O392      0.51253      .   S
    Zr333  O392      0.51253      .   S
    Zr116  O393      0.51109      .   S
    Zr332  O393      0.51109      .   S
    Zr118  O394      0.51074      .   S
    Zr334  O394      0.51074      .   S
    Zr119  O395      0.51083      .   S
    Zr335  O395      0.51083      .   S
    Zr44   O396      0.51073      .   S
    Zr238  O396      0.51073      .   S
    Zr47   O397      0.51024  1_655   S
    Zr237  O397      0.51024      .   S
    Zr45   O398      0.51061      .   S
    Zr239  O398      0.51061      .   S
    Zr46   O399      0.51011  1_655   S
    Zr236  O399      0.51011      .   S
    Zr191  O400      0.67692      .   S
    Zr307  O400      0.67692      .   S
    Zr191  O401      0.68702      .   S
    Zr314  O401      0.68702      .   S
    Zr130  O402      0.67278      .   S
    Zr210  O402      0.67278      .   S
    Zr130  O403      0.68379      .   S
    Zr218  O403      0.68379      .   S
    Zr131  O404      0.67291      .   S
    Zr211  O404      0.67291      .   S
    Zr131  O405      0.68395      .   S
    Zr219  O405      0.68395      .   S
    Zr190  O406      0.67260      .   S
    Zr306  O406      0.67260      .   S
    Zr190  O407      0.68373  1_545   S
    Zr315  O407      0.68373      .   S
    Zr189  O408      0.67385      .   S
    Zr305  O408      0.67385      .   S
    Zr189  O409      0.68344      .   S
    Zr312  O409      0.68344      .   S
    Zr128  O410      0.67292      .   S
    Zr208  O410      0.67292      .   S
    Zr128  O411      0.68404      .   S
    Zr216  O411      0.68404      .   S
    Zr188  O412      0.67247      .   S
    Zr304  O412      0.67247      .   S
    Zr188  O413      0.68396  1_545   S
    Zr313  O413      0.68396      .   S
    Zr129  O414      0.67308      .   S
    Zr209  O414      0.67308      .   S
    Zr129  O415      0.68354      .   S
    Zr217  O415      0.68354      .   S
    Zr113  O416      0.50833      .   S
    Zr333  O416      0.50833      .   S
    Zr27   O417      1.00119      .   S
    Zr307  O417      1.00119      .   S
    Zr27   O418      1.00790      .   S
    Zr219  O418      1.00790      .   S
    Zr27   O419      1.00087      .   S
    Zr323  O419      1.00087      .   S
    Zr26   O420      1.00729      .   S
    Zr218  O420      1.00729      .   S
    Zr26   O421      1.00103      .   S
    Zr306  O421      1.00103      .   S
    Zr26   O422      1.00087      .   S
    Zr322  O422      1.00087      .   S
    Zr2    O423      1.00571      .   S
    Zr314  O423      1.00571      .   S
    Zr2    O424      1.00049      .   S
    Zr210  O424      1.00049      .   S
    Zr2    O425      0.99854      .   S
    Zr226  O425      0.99854      .   S
    Zr3    O426      1.00247      .   S
    Zr211  O426      1.00247      .   S
    Zr3    O427      1.00705      .   S
    Zr315  O427      1.00705      .   S
    Zr3    O428      0.99930      .   S
    Zr227  O428      0.99930      .   S
    Zr112  O429      0.50860      .   S
    Zr332  O429      0.50860      .   S
    Zr25   O430      0.99984      .   S
    Zr305  O430      0.99984      .   S
    Zr25   O431      1.00743      .   S
    Zr217  O431      1.00743      .   S
    Zr25   O432      1.00094      .   S
    Zr321  O432      1.00094      .   S
    Zr0    O433      1.00099      .   S
    Zr208  O433      1.00099      .   S
    Zr0    O434      1.00981      .   S
    Zr312  O434      1.00981      .   S
    Zr0    O435      0.99810      .   S
    Zr224  O435      0.99810      .   S
    Zr333  O436      0.68038      .   S
    Zr197  O436      0.68038      .   S
    Zr24   O437      1.00685      .   S
    Zr216  O437      1.00685      .   S
    Zr24   O438      1.00170      .   S
    Zr304  O438      1.00170      .   S
    Zr24   O439      1.00029      .   S
    Zr320  O439      1.00029      .   S
    Zr114  O440      0.50873      .   S
    Zr334  O440      0.50873      .   S
    Zr1    O441      0.99935      .   S
    Zr209  O441      0.99935      .   S
    Zr1    O442      1.00568      .   S
    Zr313  O442      1.00568      .   S
    Zr1    O443      0.99697      .   S
    Zr225  O443      0.99697      .   S
    Zr115  O444      0.50875      .   S
    Zr335  O444      0.50875      .   S
    Zr332  O445      0.68235      .   S
    Zr196  O445      0.68235      .   S
    Zr334  O446      0.68264      .   S
    Zr198  O446      0.68264      .   S
    Zr335  O447      0.68272      .   S
    Zr199  O447      0.68272      .   S
    Zr43   O448      0.50888      .   S
    Zr238  O448      0.50888      .   S
    Zr238  O449      0.68280      .   S
    Zr138  O449      0.68280      .   S
    Zr42   O450      0.50905      .   S
    Zr239  O450      0.50905  1_565   S
    Zr40   O451      0.50921      .   S
    Zr237  O451      0.50921  1_565   S
    Zr239  O452      0.68261      .   S
    Zr139  O452      0.68261      .   S
    Zr237  O453      0.68320      .   S
    Zr137  O453      0.68320      .   S
    Zr236  O454      0.50909      .   S
    Zr41   O454      0.50909      .   S
    Zr236  O455      0.68297      .   S
    Zr136  O455      0.68297      .   S
    Zr307  O456      0.69798      .   S
    Zr311  O456      0.69798      .   S
    Zr314  O457      0.67979      .   S
    Zr194  O457      0.67979      .   S
    Zr210  O458      0.69837      .   S
    Zr214  O458      0.69837      .   S
    Zr211  O459      0.69846      .   S
    Zr215  O459      0.69846      .   S
    Zr305  O460      0.69980      .   S
    Zr309  O460      0.69980      .   S
    Zr218  O461      0.68007      .   S
    Zr134  O461      0.68007      .   S
    Zr219  O462      0.67981      .   S
    Zr135  O462      0.67981      .   S
    Zr306  O463      0.69820      .   S
    Zr310  O463      0.69820      .   S
    Zr315  O464      0.68056      .   S
    Zr195  O464      0.68056      .   S
    Zr208  O465      0.69844      .   S
    Zr212  O465      0.69844      .   S
    Zr312  O466      0.67992      .   S
    Zr192  O466      0.67992      .   S
    Zr216  O467      0.68024      .   S
    Zr132  O467      0.68024      .   S
    Zr304  O468      0.69800      .   S
    Zr308  O468      0.69800      .   S
    Zr209  O469      0.69838      .   S
    Zr213  O469      0.69838      .   S
    Zr313  O470      0.67994      .   S
    Zr193  O470      0.67994      .   S
    Zr217  O471      0.68035      .   S
    Zr133  O471      0.68035      .   S
    Zr197  O472      0.67580      .   S
    Zr321  O472      0.67580      .   S
    Zr197  O473      0.68148      .   S
    Zr329  O473      0.68148      .   S
    Zr321  O474      0.69754      .   S
    Zr325  O474      0.69754      .   S
    Zr198  O475      0.67371      .   S
    Zr322  O475      0.67371      .   S
    Zr198  O476      0.68102      .   S
    Zr330  O476      0.68102      .   S
    Zr196  O477      0.67374      .   S
    Zr320  O477      0.67374      .   S
    Zr196  O478      0.68094      .   S
    Zr328  O478      0.68094      .   S
    Zr199  O479      0.67336      .   S
    Zr323  O479      0.67336      .   S
    Zr199  O480      0.68104      .   S
    Zr331  O480      0.68104      .   S
    Zr138  O481      0.67309      .   S
    Zr224  O481      0.67309      .   S
    Zr138  O482      0.68112      .   S
    Zr234  O482      0.68112      .   S
    Zr323  O483      0.69613      .   S
    Zr327  O483      0.69613      .   S
    Zr322  O484      0.69620      .   S
    Zr326  O484      0.69620      .   S
    Zr137  O485      0.67284      .   S
    Zr227  O485      0.67284  1_655   S
    Zr137  O486      0.68142      .   S
    Zr233  O486      0.68142      .   S
    Zr136  O487      0.67239      .   S
    Zr226  O487      0.67239  1_655   S
    Zr136  O488      0.68106      .   S
    Zr232  O488      0.68106      .   S
    Zr227  O489      0.69579  1_655   S
    Zr229  O489      0.69579      .   S
    Zr139  O490      0.67325      .   S
    Zr225  O490      0.67325      .   S
    Zr139  O491      0.68130      .   S
    Zr235  O491      0.68130      .   S
    Zr320  O492      0.69630      .   S
    Zr324  O492      0.69630      .   S
    Zr224  O493      0.69561      .   S
    Zr230  O493      0.69561      .   S
    Zr226  O494      0.69552  1_655   S
    Zr228  O494      0.69552      .   S
    Zr225  O495      0.69576      .   S
    Zr231  O495      0.69576      .   S
    Zr194  O496      0.66348      .   S
    Zr311  O496      0.66348      .   S
    Zr194  O497      0.54188      .   S
    Zr122  O497      0.54188      .   S
    Zr135  O498      0.66346      .   S
    Zr215  O498      0.66346      .   S
    Zr135  O499      0.54286      .   S
    Zr51   O499      0.54286      .   S
    Zr134  O500      0.66351      .   S
    Zr214  O500      0.66351      .   S
    Zr134  O501      0.54233      .   S
    Zr50   O501      0.54233      .   S
    Zr192  O502      0.66350      .   S
    Zr309  O502      0.66350      .   S
    Zr192  O503      0.54231      .   S
    Zr120  O503      0.54231      .   S
    Zr133  O504      0.66256      .   S
    Zr213  O504      0.66256      .   S
    Zr133  O505      0.54238      .   S
    Zr49   O505      0.54238      .   S
    Zr195  O506      0.66377      .   S
    Zr310  O506      0.66377  1_545   S
    Zr195  O507      0.54230      .   S
    Zr123  O507      0.54230      .   S
    Zr132  O508      0.66359      .   S
    Zr212  O508      0.66359      .   S
    Zr132  O509      0.54226      .   S
    Zr48   O509      0.54226      .   S
    Zr309  O510      1.04289      .   S
    Zr29   O510      1.04289      .   S
    Zr311  O511      1.03889      .   S
    Zr31   O511      1.03889      .   S
    Zr213  O512      1.04232      .   S
    Zr5    O512      1.04232      .   S
    Zr214  O513      1.04233      .   S
    Zr6    O513      1.04233      .   S
    Zr215  O514      1.04431      .   S
    Zr7    O514      1.04431      .   S
    Zr310  O515      1.04064      .   S
    Zr30   O515      1.04064      .   S
    Zr212  O516      1.04334      .   S
    Zr4    O516      1.04334      .   S
    Zr193  O517      0.66361      .   S
    Zr308  O517      0.66361  1_545   S
    Zr193  O518      0.54224      .   S
    Zr121  O518      0.54224      .   S
    Zr308  O519      1.04133      .   S
    Zr28   O519      1.04133      .   S
    Zr329  O520      1.03022      .   S
    Zr7    O520      1.03022  1_655   S
    Zr329  O521      0.68155      .   S
    Zr201  O521      0.68155      .   S
    Zr328  O522      1.02839      .   S
    Zr6    O522      1.02839  1_655   S
    Zr328  O523      0.68148      .   S
    Zr200  O523      0.68148      .   S
    Zr330  O524      1.03041      .   S
    Zr4    O524      1.03041      .   S
    Zr330  O525      0.68184      .   S
    Zr202  O525      0.68184      .   S
    Zr234  O526      1.02783      .   S
    Zr31   O526      1.02783      .   S
    Zr234  O527      0.68147      .   S
    Zr142  O527      0.68147      .   S
    Zr331  O528      1.02695      .   S
    Zr5    O528      1.02695      .   S
    Zr331  O529      0.68145      .   S
    Zr203  O529      0.68145      .   S
    Zr232  O530      1.02767      .   S
    Zr29   O530      1.02767      .   S
    Zr232  O531      0.68128      .   S
    Zr140  O531      0.68128      .   S
    Zr233  O532      1.03142      .   S
    Zr28   O532      1.03142  1_545   S
    Zr233  O533      0.68144      .   S
    Zr141  O533      0.68144      .   S
    Zr235  O534      1.02969      .   S
    Zr30   O534      1.02969  1_545   S
    Zr235  O535      0.68141      .   S
    Zr143  O535      0.68141      .   S
    Zr229  O536      1.05421      .   S
    Zr7    O536      1.05421  1_655   S
    Zr229  O537      0.66288      .   S
    Zr141  O537      0.66288      .   S
    Zr228  O538      1.05286      .   S
    Zr6    O538      1.05286  1_655   S
    Zr228  O539      0.66287      .   S
    Zr140  O539      0.66287      .   S
    Zr325  O540      1.05395      .   S
    Zr29   O540      1.05395      .   S
    Zr325  O541      0.66213      .   S
    Zr201  O541      0.66213      .   S
    Zr327  O542      1.05482      .   S
    Zr31   O542      1.05482      .   S
    Zr327  O543      0.66261      .   S
    Zr203  O543      0.66261      .   S
    Zr230  O544      1.05340      .   S
    Zr4    O544      1.05340      .   S
    Zr230  O545      0.66279      .   S
    Zr142  O545      0.66279      .   S
    Zr326  O546      1.05986      .   S
    Zr30   O546      1.05986      .   S
    Zr326  O547      0.66281      .   S
    Zr202  O547      0.66281      .   S
    Zr231  O548      1.05308      .   S
    Zr5    O548      1.05308      .   S
    Zr231  O549      0.66270      .   S
    Zr143  O549      0.66270      .   S
    Zr324  O550      1.05384      .   S
    Zr28   O550      1.05384      .   S
    Zr324  O551      0.66245      .   S
    Zr200  O551      0.66245      .   S
    Zr7    O552      1.08461      .   S
    Zr339  O552      1.08461      .   S
    Zr7    O553      1.04910  1_655   S
    Zr357  O553      1.04910      .   S
    Zr29   O554      1.08832      .   S
    Zr360  O554      1.08832      .   S
    Zr29   O555      1.04252      .   S
    Zr349  O555      1.04252      .   S
    Zr31   O556      1.08857      .   S
    Zr362  O556      1.08857      .   S
    Zr31   O557      1.04318      .   S
    Zr351  O557      1.04318      .   S
    Zr6    O558      1.08501      .   S
    Zr338  O558      1.08501      .   S
    Zr6    O559      1.04908  1_655   S
    Zr356  O559      1.04908      .   S
    Zr4    O560      1.08444      .   S
    Zr336  O560      1.08444      .   S
    Zr4    O561      1.04982      .   S
    Zr358  O561      1.04982      .   S
    Zr5    O562      1.08739      .   S
    Zr337  O562      1.08739      .   S
    Zr5    O563      1.04917      .   S
    Zr359  O563      1.04917      .   S
    Zr30   O564      1.09288  1_545   S
    Zr363  O564      1.09288      .   S
    Zr30   O565      1.03958      .   S
    Zr350  O565      1.03958      .   S
    Zr28   O566      1.08830  1_545   S
    Zr361  O566      1.08830      .   S
    Zr28   O567      1.04248      .   S
    Zr348  O567      1.04248      .   S
    Zr140  O568      0.54164      .   S
    Zr52   O568      0.54164      .   S
    Zr201  O569      0.54143      .   S
    Zr125  O569      0.54143      .   S
    Zr141  O570      0.54159      .   S
    Zr53   O570      0.54159      .   S
    Zr142  O571      0.54158      .   S
    Zr54   O571      0.54158      .   S
    Zr143  O572      0.54164      .   S
    Zr55   O572      0.54164      .   S
    Zr203  O573      0.54166      .   S
    Zr127  O573      0.54166      .   S
    Zr202  O574      0.54154      .   S
    Zr126  O574      0.54154      .   S
    Zr200  O575      0.54174      .   S
    Zr124  O575      0.54174      .   S
    Zr362  O576      0.63208      .   S
    Zr206  O576      0.63208      .   S
    Zr360  O577      0.63226      .   S
    Zr204  O577      0.63226      .   S
    Zr339  O578      0.63253      .   S
    Zr147  O578      0.63253      .   S
    Zr337  O579      0.63238      .   S
    Zr145  O579      0.63238      .   S
    Zr338  O580      0.63247      .   S
    Zr146  O580      0.63247      .   S
    Zr363  O581      0.63216      .   S
    Zr207  O581      0.63216      .   S
    Zr336  O582      0.63250      .   S
    Zr144  O582      0.63250      .   S
    Zr361  O583      0.63209      .   S
    Zr205  O583      0.63209      .   S
    Zr357  O584      0.63458      .   S
    Zr185  O584      0.63458      .   S
    Zr349  O585      0.63441      .   S
    Zr165  O585      0.63441      .   S
    Zr356  O586      0.63411      .   S
    Zr184  O586      0.63411      .   S
    Zr351  O587      0.63424      .   S
    Zr167  O587      0.63424      .   S
    Zr358  O588      0.63418      .   S
    Zr186  O588      0.63418      .   S
    Zr359  O589      0.63424      .   S
    Zr187  O589      0.63424      .   S
    Zr350  O590      0.63496      .   S
    Zr166  O590      0.63496      .   S
    Zr348  O591      0.63464      .   S
    Zr164  O591      0.63464      .   S
    Zr206  O592      0.77446      .   S
    Zr167  O592      0.77446      .   S
    Zr206  O593      0.63447      .   S
    Zr366  O593      0.63447      .   S
    Zr204  O594      0.77432      .   S
    Zr165  O594      0.77432      .   S
    Zr204  O595      0.63451      .   S
    Zr364  O595      0.63451      .   S
    Zr147  O596      0.77394  1_655   S
    Zr185  O596      0.77394      .   S
    Zr147  O597      0.63423      .   S
    Zr343  O597      0.63423      .   S
    Zr145  O598      0.77383      .   S
    Zr187  O598      0.77383      .   S
    Zr145  O599      0.63457      .   S
    Zr341  O599      0.63457      .   S
    Zr146  O600      0.77393      .   S
    Zr184  O600      0.77393  1_455   S
    Zr146  O601      0.63422      .   S
    Zr342  O601      0.63422      .   S
    Zr207  O602      0.77441  1_565   S
    Zr166  O602      0.77441      .   S
    Zr207  O603      0.63470      .   S
    Zr367  O603      0.63470      .   S
    Zr144  O604      0.77400      .   S
    Zr186  O604      0.77400      .   S
    Zr144  O605      0.63429      .   S
    Zr340  O605      0.63429      .   S
    Zr205  O606      0.77446  1_565   S
    Zr164  O606      0.77446      .   S
    Zr205  O607      0.63464      .   S
    Zr365  O607      0.63464      .   S
    Zr165  O608      0.63248      .   S
    Zr345  O608      0.63248      .   S
    Zr167  O609      0.63274      .   S
    Zr347  O609      0.63274      .   S
    Zr185  O610      0.63252      .   S
    Zr353  O610      0.63252      .   S
    Zr184  O611      0.63300      .   S
    Zr352  O611      0.63300      .   S
    Zr186  O612      0.63288      .   S
    Zr354  O612      0.63288      .   S
    Zr187  O613      0.63272      .   S
    Zr355  O613      0.63272      .   S
    Zr166  O614      0.63212      .   S
    Zr346  O614      0.63212      .   S
    Zr164  O615      0.63244      .   S
    Zr344  O615      0.63244      .   S
    Zr366  O616      1.04525      .   S
    Zr14   O616      1.04525      .   S
    Zr364  O617      1.04380      .   S
    Zr12   O617      1.04380      .   S
    Zr367  O618      1.04441      .   S
    Zr15   O618      1.04441      .   S
    Zr341  O619      1.04845      .   S
    Zr23   O619      1.04845      .   S
    Zr343  O620      1.04830      .   S
    Zr21   O620      1.04830  1_455   S
    Zr340  O621      1.04891      .   S
    Zr22   O621      1.04891      .   S
    Zr342  O622      1.05157      .   S
    Zr20   O622      1.05157  1_455   S
    Zr365  O623      1.04219      .   S
    Zr13   O623      1.04219      .   S
    Zr345  O624      1.08445      .   S
    Zr12   O624      1.08445      .   S
    Zr347  O625      1.08035      .   S
    Zr14   O625      1.08035      .   S
    Zr353  O626      1.08774      .   S
    Zr21   O626      1.08774      .   S
    Zr352  O627      1.07919      .   S
    Zr20   O627      1.07919      .   S
    Zr354  O628      1.08341      .   S
    Zr22   O628      1.08341      .   S
    Zr355  O629      1.08566      .   S
    Zr23   O629      1.08566      .   S
    Zr346  O630      1.09067      .   S
    Zr15   O630      1.09067  1_565   S
    Zr344  O631      1.08836      .   S
    Zr13   O631      1.08836  1_565   S
    Zr78   O632      0.54208      .   S
    Zr162  O632      0.54208      .   S
    Zr76   O633      0.54111      .   S
    Zr160  O633      0.54111      .   S
    Zr103  O634      0.54156      .   S
    Zr183  O634      0.54156      .   S
    Zr77   O635      0.54172      .   S
    Zr161  O635      0.54172      .   S
    Zr79   O636      0.54175      .   S
    Zr163  O636      0.54175      .   S
    Zr102  O637      0.54162      .   S
    Zr182  O637      0.54162      .   S
    Zr101  O638      0.54162      .   S
    Zr181  O638      0.54162      .   S
    Zr100  O639      0.54161      .   S
    Zr180  O639      0.54161      .   S
    Zr162  O640      0.66188      .   S
    Zr262  O640      0.66188      .   S
    Zr162  O641      0.68087      .   S
    Zr266  O641      0.68087      .   S
    Zr183  O642      0.66268      .   S
    Zr295  O642      0.66268      .   S
    Zr183  O643      0.68111      .   S
    Zr299  O643      0.68111      .   S
    Zr160  O644      0.66212      .   S
    Zr260  O644      0.66212      .   S
    Zr160  O645      0.68142      .   S
    Zr264  O645      0.68142      .   S
    Zr181  O646      0.66222      .   S
    Zr293  O646      0.66222      .   S
    Zr181  O647      0.68133      .   S
    Zr297  O647      0.68133      .   S
    Zr182  O648      0.66230      .   S
    Zr294  O648      0.66230      .   S
    Zr182  O649      0.68087      .   S
    Zr298  O649      0.68087      .   S
    Zr163  O650      0.66138      .   S
    Zr263  O650      0.66138      .   S
    Zr163  O651      0.68095      .   S
    Zr267  O651      0.68095      .   S
    Zr161  O652      0.66185      .   S
    Zr261  O652      0.66185      .   S
    Zr161  O653      0.68106      .   S
    Zr265  O653      0.68106      .   S
    Zr180  O654      0.66217      .   S
    Zr292  O654      0.66217      .   S
    Zr180  O655      0.68083      .   S
    Zr296  O655      0.68083      .   S
    Zr14   O656      1.04713      .   S
    Zr262  O656      1.04713      .   S
    Zr14   O657      1.02535      .   S
    Zr299  O657      1.02535      .   S
    Zr14   O658      1.04573      .   S
    Zr246  O658      1.04573      .   S
    Zr12   O659      1.04818      .   S
    Zr260  O659      1.04818      .   S
    Zr12   O660      1.02988      .   S
    Zr297  O660      1.02988      .   S
    Zr12   O661      1.04377      .   S
    Zr244  O661      1.04377      .   S
    Zr15   O662      1.04616      .   S
    Zr263  O662      1.04616      .   S
    Zr15   O663      1.02492  1_565   S
    Zr298  O663      1.02492      .   S
    Zr15   O664      1.04023      .   S
    Zr247  O664      1.04023      .   S
    Zr21   O665      1.04972  1_455   S
    Zr295  O665      1.04972      .   S
    Zr21   O666      1.02431  1_455   S
    Zr267  O666      1.02431      .   S
    Zr21   O667      1.03981      .   S
    Zr277  O667      1.03981      .   S
    Zr23   O668      1.04855      .   S
    Zr293  O668      1.04855      .   S
    Zr23   O669      1.02456      .   S
    Zr265  O669      1.02456      .   S
    Zr23   O670      1.04428      .   S
    Zr279  O670      1.04428      .   S
    Zr22   O671      1.04560      .   S
    Zr292  O671      1.04560      .   S
    Zr22   O672      1.02519      .   S
    Zr264  O672      1.02519      .   S
    Zr22   O673      1.04559      .   S
    Zr278  O673      1.04559      .   S
    Zr20   O674      1.04575  1_455   S
    Zr294  O674      1.04575      .   S
    Zr20   O675      1.02371  1_455   S
    Zr266  O675      1.02371      .   S
    Zr20   O676      1.04771      .   S
    Zr276  O676      1.04771      .   S
    Zr13   O677      1.04905      .   S
    Zr261  O677      1.04905      .   S
    Zr13   O678      1.02353  1_565   S
    Zr296  O678      1.02353      .   S
    Zr13   O679      1.04113      .   S
    Zr245  O679      1.04113      .   S
    Zr262  O680      0.69713      .   S
    Zr258  O680      0.69713      .   S
    Zr260  O681      0.69731      .   S
    Zr256  O681      0.69731      .   S
    Zr295  O682      0.69502      .   S
    Zr289  O682      0.69502  1_455   S
    Zr293  O683      0.69631      .   S
    Zr291  O683      0.69631      .   S
    Zr263  O684      0.69765      .   S
    Zr259  O684      0.69765      .   S
    Zr292  O685      0.69621      .   S
    Zr290  O685      0.69621      .   S
    Zr294  O686      0.69633      .   S
    Zr288  O686      0.69633  1_455   S
    Zr261  O687      0.69671      .   S
    Zr257  O687      0.69671      .   S
    Zr299  O688      0.68083      .   S
    Zr179  O688      0.68083      .   S
    Zr73   O689      0.54248      .   S
    Zr153  O689      0.54248      .   S
    Zr75   O690      0.54218      .   S
    Zr155  O690      0.54218      .   S
    Zr297  O691      0.68142      .   S
    Zr177  O691      0.68142      .   S
    Zr298  O692      0.68105      .   S
    Zr178  O692      0.68105      .   S
    Zr97   O693      0.54262      .   S
    Zr173  O693      0.54262      .   S
    Zr266  O694      0.68083      .   S
    Zr158  O694      0.68083      .   S
    Zr296  O695      0.68112      .   S
    Zr176  O695      0.68112      .   S
    Zr74   O696      0.54220      .   S
    Zr154  O696      0.54220      .   S
    Zr264  O697      0.68085      .   S
    Zr156  O697      0.68085      .   S
    Zr99   O698      0.54217      .   S
    Zr175  O698      0.54217      .   S
    Zr265  O699      0.68094      .   S
    Zr157  O699      0.68094      .   S
    Zr98   O700      0.54220      .   S
    Zr174  O700      0.54220      .   S
    Zr72   O701      0.54223      .   S
    Zr152  O701      0.54223      .   S
    Zr267  O702      0.68132      .   S
    Zr159  O702      0.68132      .   S
    Zr96   O703      0.54219      .   S
    Zr172  O703      0.54219      .   S
    Zr244  O704      0.66320      .   S
    Zr153  O704      0.66320      .   S
    Zr244  O705      0.69977      .   S
    Zr240  O705      0.69977      .   S
    Zr155  O706      0.66230      .   S
    Zr246  O706      0.66230      .   S
    Zr155  O707      0.67990      .   S
    Zr251  O707      0.67990      .   S
    Zr153  O708      0.67963      .   S
    Zr249  O708      0.67963      .   S
    Zr277  O709      0.66233      .   S
    Zr173  O709      0.66233      .   S
    Zr277  O710      0.69847      .   S
    Zr273  O710      0.69847      .   S
    Zr246  O711      0.69982      .   S
    Zr242  O711      0.69982      .   S
    Zr175  O712      0.66242      .   S
    Zr279  O712      0.66242      .   S
    Zr175  O713      0.67991      .   S
    Zr283  O713      0.67991      .   S
    Zr154  O714      0.66239      .   S
    Zr247  O714      0.66239  1_565   S
    Zr154  O715      0.67974      .   S
    Zr250  O715      0.67974      .   S
    Zr279  O716      0.69998      .   S
    Zr275  O716      0.69998      .   S
    Zr173  O717      0.68011      .   S
    Zr281  O717      0.68011      .   S
    Zr247  O718      0.69966      .   S
    Zr243  O718      0.69966      .   S
    Zr174  O719      0.66228      .   S
    Zr278  O719      0.66228      .   S
    Zr174  O720      0.67987      .   S
    Zr282  O720      0.67987      .   S
    Zr278  O721      0.70027      .   S
    Zr274  O721      0.70027      .   S
    Zr152  O722      0.66232      .   S
    Zr245  O722      0.66232  1_565   S
    Zr152  O723      0.67965      .   S
    Zr248  O723      0.67965      .   S
    Zr172  O724      0.66229      .   S
    Zr276  O724      0.66229      .   S
    Zr172  O725      0.68023      .   S
    Zr280  O725      0.68023      .   S
    Zr245  O726      0.69966      .   S
    Zr241  O726      0.69966      .   S
    Zr276  O727      0.69990      .   S
    Zr272  O727      0.69990      .   S
    Zr289  O728      0.67244  1_455   S
    Zr179  O728      0.67244      .   S
    Zr289  O729      0.99641      .   S
    Zr17   O729      0.99641      .   S
    Zr179  O730      0.68260      .   S
    Zr303  O730      0.68260      .   S
    Zr291  O731      0.67438      .   S
    Zr177  O731      0.67438      .   S
    Zr291  O732      0.99741      .   S
    Zr19   O732      0.99741      .   S
    Zr290  O733      0.67416      .   S
    Zr176  O733      0.67416      .   S
    Zr290  O734      0.99833      .   S
    Zr18   O734      0.99833      .   S
    Zr177  O735      0.68088      .   S
    Zr301  O735      0.68088      .   S
    Zr258  O736      0.67512      .   S
    Zr158  O736      0.67512      .   S
    Zr258  O737      1.00099      .   S
    Zr10   O737      1.00099      .   S
    Zr256  O738      0.67490      .   S
    Zr156  O738      0.67490      .   S
    Zr256  O739      0.99996      .   S
    Zr8    O739      0.99996      .   S
    Zr288  O740      0.67398  1_455   S
    Zr178  O740      0.67398      .   S
    Zr288  O741      0.99654      .   S
    Zr16   O741      0.99654      .   S
    Zr176  O742      0.68086      .   S
    Zr300  O742      0.68086      .   S
    Zr178  O743      0.68083      .   S
    Zr302  O743      0.68083      .   S
    Zr259  O744      0.67552      .   S
    Zr159  O744      0.67552      .   S
    Zr259  O745      1.00111      .   S
    Zr11   O745      1.00111      .   S
    Zr158  O746      0.68025      .   S
    Zr270  O746      0.68025      .   S
    Zr156  O747      0.68055      .   S
    Zr268  O747      0.68055      .   S
    Zr257  O748      0.67479      .   S
    Zr157  O748      0.67479      .   S
    Zr257  O749      1.00150      .   S
    Zr9    O749      1.00150      .   S
    Zr159  O750      0.68017      .   S
    Zr271  O750      0.68017      .   S
    Zr157  O751      0.68069      .   S
    Zr269  O751      0.68069      .   S
    Zr251  O752      1.00611      .   S
    Zr19   O752      1.00611      .   S
    Zr251  O753      0.68265      .   S
    Zr150  O753      0.68265      .   S
    Zr283  O754      1.00720      .   S
    Zr11   O754      1.00720      .   S
    Zr283  O755      0.68289      .   S
    Zr171  O755      0.68289      .   S
    Zr250  O756      1.00659      .   S
    Zr18   O756      1.00659      .   S
    Zr250  O757      0.68269      .   S
    Zr151  O757      0.68269  1_565   S
    Zr282  O758      1.00732      .   S
    Zr10   O758      1.00732      .   S
    Zr282  O759      0.68272      .   S
    Zr170  O759      0.68272      .   S
    Zr280  O760      1.00663      .   S
    Zr8    O760      1.00663      .   S
    Zr280  O761      0.68235      .   S
    Zr168  O761      0.68235      .   S
    Zr248  O762      1.00557      .   S
    Zr16   O762      1.00557      .   S
    Zr248  O763      0.68292      .   S
    Zr149  O763      0.68292  1_565   S
    Zr281  O764      1.00493      .   S
    Zr9    O764      1.00493      .   S
    Zr281  O765      0.68315      .   S
    Zr169  O765      0.68315      .   S
    Zr249  O766      1.00679      .   S
    Zr17   O766      1.00679      .   S
    Zr249  O767      0.68276      .   S
    Zr148  O767      0.68276      .   S
    Zr275  O768      0.99532      .   S
    Zr19   O768      0.99532      .   S
    Zr275  O769      0.67444      .   S
    Zr171  O769      0.67444      .   S
    Zr242  O770      0.99453      .   S
    Zr10   O770      0.99453      .   S
    Zr242  O771      0.67400      .   S
    Zr150  O771      0.67400      .   S
    Zr273  O772      0.99743      .   S
    Zr17   O772      0.99743      .   S
    Zr273  O773      0.67323      .   S
    Zr169  O773      0.67323      .   S
    Zr243  O774      0.99690      .   S
    Zr11   O774      0.99690      .   S
    Zr243  O775      0.67375      .   S
    Zr151  O775      0.67375      .   S
    Zr274  O776      0.99647      .   S
    Zr18   O776      0.99647      .   S
    Zr274  O777      0.67429      .   S
    Zr170  O777      0.67429      .   S
    Zr240  O778      0.99812      .   S
    Zr8    O778      0.99812      .   S
    Zr240  O779      0.67376      .   S
    Zr148  O779      0.67376      .   S
    Zr272  O780      0.99477      .   S
    Zr16   O780      0.99477      .   S
    Zr272  O781      0.67415      .   S
    Zr168  O781      0.67415      .   S
    Zr241  O782      0.99622      .   S
    Zr9    O782      0.99622      .   S
    Zr241  O783      0.67403      .   S
    Zr149  O783      0.67403      .   S
    Zr90   O784      0.50891      .   S
    Zr303  O784      0.50891      .   S
    Zr303  O785      0.51035      .   S
    Zr93   O785      0.51035  1_455   S
    Zr88   O786      0.50851      .   S
    Zr301  O786      0.50851      .   S
    Zr301  O787      0.51184      .   S
    Zr95   O787      0.51184      .   S
    Zr89   O788      0.50865      .   S
    Zr300  O788      0.50865  1_545   S
    Zr300  O789      0.51201      .   S
    Zr94   O789      0.51201      .   S
    Zr91   O790      0.50864      .   S
    Zr302  O790      0.50864  1_545   S
    Zr302  O791      0.51179      .   S
    Zr92   O791      0.51179  1_455   S
    Zr270  O792      0.50809      .   S
    Zr66   O792      0.50809      .   S
    Zr270  O793      0.51251      .   S
    Zr70   O793      0.51251      .   S
    Zr268  O794      0.50816      .   S
    Zr64   O794      0.50816      .   S
    Zr268  O795      0.51267      .   S
    Zr68   O795      0.51267      .   S
    Zr269  O796      0.50822      .   S
    Zr65   O796      0.50822      .   S
    Zr269  O797      0.51209      .   S
    Zr69   O797      0.51209      .   S
    Zr271  O798      0.50822      .   S
    Zr67   O798      0.50822      .   S
    Zr271  O799      0.51251      .   S
    Zr71   O799      0.51251      .   S
    Zr171  O800      0.67751      .   S
    Zr287  O800      0.67751      .   S
    Zr150  O801      0.67805      .   S
    Zr254  O801      0.67805      .   S
    Zr170  O802      0.67785      .   S
    Zr286  O802      0.67785      .   S
    Zr151  O803      0.67849      .   S
    Zr255  O803      0.67849      .   S
    Zr168  O804      0.67807      .   S
    Zr284  O804      0.67807      .   S
    Zr149  O805      0.67780      .   S
    Zr253  O805      0.67780      .   S
    Zr169  O806      0.67792      .   S
    Zr285  O806      0.67792      .   S
    Zr148  O807      0.67952      .   S
    Zr252  O807      0.67952      .   S
    Zr287  O808      0.51019      .   S
    Zr87   O808      0.51019      .   S
    Zr287  O809      0.51748      .   S
    Zr83   O809      0.51748      .   S
    Zr286  O810      0.51003      .   S
    Zr86   O810      0.51003      .   S
    Zr286  O811      0.51698      .   S
    Zr82   O811      0.51698      .   S
    Zr254  O812      0.51014      .   S
    Zr62   O812      0.51014      .   S
    Zr254  O813      0.51683      .   S
    Zr58   O813      0.51683      .   S
    Zr255  O814      0.51016      .   S
    Zr63   O814      0.51016      .   S
    Zr255  O815      0.51693      .   S
    Zr59   O815      0.51693      .   S
    Zr284  O816      0.50979      .   S
    Zr84   O816      0.50979      .   S
    Zr284  O817      0.51740      .   S
    Zr80   O817      0.51740      .   S
    Zr253  O818      0.50996      .   S
    Zr61   O818      0.50996      .   S
    Zr253  O819      0.51706      .   S
    Zr57   O819      0.51706      .   S
    Zr285  O820      0.50933      .   S
    Zr85   O820      0.50933      .   S
    Zr285  O821      0.51594      .   S
    Zr81   O821      0.51594      .   S
    Zr252  O822      0.51780      .   S
    Zr56   O822      0.51780      .   S
    Zr252  O823      0.51345      .   S
    Zr60   O823      0.51345      .   S
    N824   O825      0.98748  1_556   S
    Zr2    O825      1.88405      .   S
    N824   O826      1.00041      .   S
    Zr10   O826      1.90508      .   S
    N827   O828      1.00717      .   S
    Zr16   O828      1.91756      .   S
    N827   O829      0.98745  1_556   S
    Zr24   O829      1.88692      .   S
    N830   O831      0.98603  1_556   S
    Zr0    O831      1.88716      .   S
    N830   O832      1.00783      .   S
    Zr8    O832      1.91917      .   S
    N833   O834      0.99571      .   S
    Zr1    O834      1.89724      .   S
    N833   O835      1.00018  1_554   S
    Zr9    O835      1.90527      .   S
    N836   O837      0.98889  1_556   S
    Zr3    O837      1.88696      .   S
    N836   O838      1.00122      .   S
    Zr11   O838      1.90714      .   S
    N839   O840      1.00979      .   S
    Zr19   O840      1.92197      .   S
    N839   O841      0.98629  1_556   S
    Zr27   O841      1.88430      .   S
    N842   O843      0.98524      .   S
    Zr17   O843      1.88307      .   S
    N842   O844      1.00996  1_556   S
    Zr25   O844      1.92217      .   S
    N845   O846      1.00259      .   S
    Zr18   O846      1.90955      .   S
    N845   O847      0.98665  1_556   S
    Zr26   O847      1.88324      .   S
