# CIF file generated by openbabel 2.4.90, see http://openbabel.sf.net
data_I
_chemical_name_common ''
_cell_length_a 13.968
_cell_length_b 14.562
_cell_length_c 24.165
_cell_angle_alpha 89.979
_cell_angle_beta 90.005
_cell_angle_gamma 116.971
_space_group_name_H-M_alt 'P 1'
_space_group_name_Hall 'P 1'
loop_
    _symmetry_equiv_pos_as_xyz
    x,y,z
loop_
    _atom_site_label
    _atom_site_type_symbol
    _atom_site_fract_x
    _atom_site_fract_y
    _atom_site_fract_z
    _atom_site_occupancy
    N0      N    0.28237   0.11980   0.99977   1.000
    N1      N    0.71695   0.88017   0.00030   1.000
    N2      N    0.71708   0.37983   0.49978   1.000
    N3      N    0.28222   0.62018   0.50027   1.000
    Zr4     Zr   0.97626   0.97919   0.35127   1.000
    O5      O    0.90029   0.95021   0.25288   1.000
    Zr6     Zr   0.02383   0.02082   0.64880   1.000
    O7      O    0.09961   0.04978   0.74719   1.000
    Zr8     Zr   0.00001   0.49999   0.00000   1.000
    Zr9     Zr   0.00003   0.00002   0.50004   1.000
    Zr10    Zr   0.02369   0.52129   0.85129   1.000
    O11     O    0.09946   0.55019   0.75289   1.000
    Zr12    Zr   0.97638   0.47867   0.14880   1.000
    O13     O    0.90041   0.44978   0.24719   1.000
    O14     O    0.06225   0.89862   0.49346   1.000
    O15     O    0.93755   0.10141   0.50662   1.000
    O16     O    0.06229   0.39847   0.00659   1.000
    O17     O    0.93022   0.59962   0.99222   1.000
    O18     O    0.94113   0.11178   0.60526   1.000
    O19     O    0.05760   0.39378   0.10655   1.000
    O20     O    0.05278   0.88619   0.39279   1.000
    O21     O    0.95385   0.61434   0.89252   1.000
loop_
    _geom_bond_atom_site_label_1
    _geom_bond_atom_site_label_2
    _geom_bond_distance
    _geom_bond_site_symmetry_2
    _ccdc_geom_bond_type
    Zr4    O5        2.55946      .   S
    N1     O5        6.51805      .   S
    Zr6    O7        2.55854      .   S
    N0     O7        6.51549      .   S
    Zr10   O11       2.55874      .   S
    N3     O11       6.51595      .   S
    Zr12   O13       2.55941      .   S
    N2     O13       6.51802      .   S
    Zr9    O14       2.03112  1_545   S
    N3     O14       6.09971      .   S
    N2     O15       6.10511      .   S
    Zr9    O15       2.03365  1_455   S
    Zr8    O16       2.03317      .   S
    N0     O16       6.10419  1_556   S
    Zr8    O17       2.09117  1_454   S
    N1     O17       6.05330  1_554   S
    Zr6    O18       2.36274  1_455   S
    N2     O18       6.52660      .   S
    N0     O19       6.61854  1_556   S
    Zr12   O19       2.26510  1_655   S
    N3     O20       6.57833      .   S
    Zr4    O20       2.30107  1_655   S
    Zr10   O21       2.23174  1_455   S
    N1     O21       6.65928  1_554   S
