# CIF file generated by openbabel 2.4.90, see http://openbabel.sf.net
data_I
_chemical_name_common ''
_cell_length_a 13.968
_cell_length_b 14.562
_cell_length_c 24.165
_cell_angle_alpha 89.979
_cell_angle_beta 90.005
_cell_angle_gamma 116.971
_space_group_name_H-M_alt 'P 1'
_space_group_name_Hall 'P 1'
loop_
    _symmetry_equiv_pos_as_xyz
    x,y,z
loop_
    _atom_site_label
    _atom_site_type_symbol
    _atom_site_fract_x
    _atom_site_fract_y
    _atom_site_fract_z
    _atom_site_occupancy
    Zr0     Zr   0.02383   0.02082   0.64880   1.000
    Zr1     Zr   0.97638   0.47867   0.14880   1.000
    Zr2     Zr   0.97626   0.97919   0.35127   1.000
    Zr3     Zr   0.02369   0.52129   0.85129   1.000
    Zr4     Zr   0.00003   0.00002   0.50004   1.000
    Zr5     Zr   0.00001   0.49999   0.00000   1.000
    N6      N    0.28237   0.11980   0.99977   1.000
    O7      O    0.08350   0.27749   0.06739   1.000
    O8      O    0.15900   0.34416   0.07515   1.000
    O9      O    0.13478   0.32996   0.05580   1.000
    O10     O    0.14069   0.33529   0.01860   1.000
    O11     O    0.17539   0.07873   0.84557   1.000
    O12     O    0.13528   0.26762   0.07506   1.000
    O13     O    0.15209   0.28889   0.05505   1.000
    O14     O    0.15800   0.29422   0.01785   1.000
    O15     O    0.09979   0.27916   0.00814   1.000
    N16     N    0.71695   0.88017   0.00030   1.000
    O17     O    0.84070   0.65580   0.92494   1.000
    O18     O    0.86440   0.67000   0.94429   1.000
    O19     O    0.85848   0.66468   0.98147   1.000
    O20     O    0.82432   0.92124   0.15450   1.000
    O21     O    0.85469   0.73236   0.92502   1.000
    O22     O    0.84760   0.71107   0.94503   1.000
    O23     O    0.84168   0.70574   0.98220   1.000
    O24     O    0.89989   0.72082   0.99190   1.000
    O25     O    0.91618   0.72247   0.93269   1.000
    N26     N    0.71708   0.37983   0.49978   1.000
    O27     O    0.85478   0.23192   0.57510   1.000
    O28     O    0.84773   0.21073   0.55507   1.000
    O29     O    0.84178   0.20552   0.51788   1.000
    O30     O    0.89998   0.22062   0.50815   1.000
    O31     O    0.91631   0.22209   0.56739   1.000
    O32     O    0.84093   0.15537   0.57516   1.000
    O33     O    0.86450   0.16964   0.55577   1.000
    O34     O    0.85855   0.16444   0.51858   1.000
    O35     O    0.82444   0.42088   0.34558   1.000
    N36     N    0.28222   0.62018   0.50027   1.000
    O37     O    0.13518   0.76808   0.42496   1.000
    O38     O    0.15196   0.78928   0.44498   1.000
    O39     O    0.15790   0.79449   0.48218   1.000
    O40     O    0.09970   0.77939   0.49192   1.000
    O41     O    0.08339   0.77792   0.43268   1.000
    O42     O    0.15876   0.84464   0.42491   1.000
    O43     O    0.14061   0.83558   0.48149   1.000
    O44     O    0.13467   0.83037   0.44429   1.000
    O45     O    0.17523   0.57910   0.65449   1.000
loop_
    _geom_bond_atom_site_label_1
    _geom_bond_atom_site_label_2
    _geom_bond_distance
    _geom_bond_site_symmetry_2
    _ccdc_geom_bond_type
    N6     O7        4.63128  1_556   S
    Zr1    O7        4.32117  1_655   S
    N6     O8        4.69822  1_556   S
    Zr1    O8        4.24822  1_655   S
    N6     O9        4.60169  1_556   S
    Zr1    O9        4.35732  1_655   S
    N6     O10       4.42774  1_556   S
    Zr5    O10       3.75356      .   S
    N6     O11       3.95788      .   S
    Zr0    O11       5.11708      .   S
    N6     O12       4.02244  1_556   S
    Zr1    O12       4.87232  1_655   S
    N6     O13       3.90197  1_556   S
    Zr1    O13       4.99530  1_655   S
    N6     O14       3.69630  1_556   S
    Zr5    O14       4.47573      .   S
    N6     O15       4.15913  1_556   S
    Zr5    O15       4.04814      .   S
    N16    O17       4.70183  1_554   S
    Zr3    O17       4.25231  1_455   S
    N16    O18       4.60013  1_554   S
    Zr3    O18       4.36647  1_455   S
    N16    O19       4.42607  1_554   S
    Zr5    O19       3.76292  1_454   S
    N16    O20       3.95950      .   S
    Zr2    O20       5.11891      .   S
    N16    O21       3.92478  1_554   S
    Zr3    O21       4.97796  1_455   S
    N16    O22       3.90599  1_554   S
    Zr3    O22       4.99901  1_455   S
    N16    O23       3.70035  1_554   S
    Zr5    O23       4.47916  1_454   S
    N16    O24       4.16347  1_554   S
    Zr5    O24       4.05131  1_454   S
    N16    O25       4.63539  1_554   S
    Zr3    O25       4.32472  1_455   S
    N26    O27       3.92485      .   S
    Zr0    O27       4.97760  1_455   S
    N26    O28       3.90539      .   S
    Zr0    O28       4.99917  1_455   S
    N26    O29       3.69818      .   S
    Zr4    O29       4.47536  1_455   S
    N26    O30       4.16105      .   S
    Zr4    O30       4.04765  1_455   S
    N26    O31       4.63501      .   S
    Zr0    O31       4.32474  1_455   S
    N26    O32       4.70284      .   S
    Zr0    O32       4.25084  1_455   S
    N26    O33       4.59912      .   S
    Zr0    O33       4.36722  1_455   S
    N26    O34       4.42369      .   S
    Zr4    O34       3.75920  1_455   S
    N26    O35       3.95953      .   S
    Zr1    O35       5.11882      .   S
    N36    O37       4.02221      .   S
    Zr2    O37       4.87178  1_655   S
    N36    O38       3.90139      .   S
    Zr2    O38       4.99496  1_655   S
    N36    O39       3.69417      .   S
    Zr4    O39       4.47147  1_545   S
    N36    O40       4.15655      .   S
    Zr4    O40       4.04425  1_545   S
    N36    O41       4.63035      .   S
    Zr2    O41       4.32130  1_655   S
    N36    O42       4.69922      .   S
    Zr2    O42       4.24625  1_655   S
    N36    O43       4.42532      .   S
    Zr4    O43       3.74927  1_545   S
    N36    O44       4.60052      .   S
    Zr2    O44       4.35783  1_655   S
    N36    O45       3.95814      .   S
    Zr3    O45       5.11748      .   S
