# CIF file generated by openbabel 2.4.90, see http://openbabel.sf.net
data_I
_chemical_name_common ''
_cell_length_a 13.968
_cell_length_b 14.562
_cell_length_c 24.165
_cell_angle_alpha 89.979
_cell_angle_beta 90.005
_cell_angle_gamma 116.971
_space_group_name_H-M_alt 'P 1'
_space_group_name_Hall 'P 1'
loop_
    _symmetry_equiv_pos_as_xyz
    x,y,z
loop_
    _atom_site_label
    _atom_site_type_symbol
    _atom_site_fract_x
    _atom_site_fract_y
    _atom_site_fract_z
    _atom_site_occupancy
    N0      N    0.28237   0.11980   0.99977   1.000
    N1      N    0.71695   0.88017   0.00030   1.000
    N2      N    0.71708   0.37983   0.49978   1.000
    N3      N    0.28222   0.62018   0.50027   1.000
    Zr4     Zr   0.97626   0.97919   0.35127   1.000
    O5      O    0.02983   0.87855   0.39198   1.000
    O6      O    0.06751   0.91191   0.38809   1.000
    O7      O    0.90029   0.95021   0.25288   1.000
    O8      O    0.05546   0.90478   0.39778   1.000
    O9      O    0.05572   0.87363   0.38812   1.000
    O10     O    0.06411   0.88424   0.39813   1.000
    Zr11    Zr   0.02383   0.02082   0.64880   1.000
    O12     O    0.93931   0.12637   0.61195   1.000
    O13     O    0.94416   0.09523   0.60229   1.000
    O14     O    0.93238   0.08810   0.61198   1.000
    O15     O    0.97007   0.12146   0.60809   1.000
    O16     O    0.93578   0.11577   0.60194   1.000
    O17     O    0.09961   0.04978   0.74719   1.000
    Zr18    Zr   0.00001   0.49999   0.00000   1.000
    O19     O    0.94995   0.61040   0.99595   1.000
    O20     O    0.92084   0.60287   0.99110   1.000
    O21     O    0.92924   0.58233   0.99073   1.000
    O22     O    0.07901   0.39710   0.00892   1.000
    O23     O    0.07035   0.41764   0.00930   1.000
    O24     O    0.04990   0.38957   0.00407   1.000
    Zr25    Zr   0.00003   0.00002   0.50004   1.000
    O26     O    0.07897   0.89725   0.49111   1.000
    O27     O    0.04986   0.88970   0.49598   1.000
    O28     O    0.92929   0.08223   0.50931   1.000
    O29     O    0.95001   0.11032   0.50410   1.000
    O30     O    0.92090   0.10277   0.50896   1.000
    O31     O    0.07032   0.91780   0.49076   1.000
    Zr32    Zr   0.02369   0.52129   0.85129   1.000
    O33     O    0.93220   0.58855   0.88811   1.000
    O34     O    0.93564   0.61618   0.89816   1.000
    O35     O    0.93919   0.62682   0.88816   1.000
    O36     O    0.94405   0.59564   0.89779   1.000
    O37     O    0.96994   0.62188   0.89199   1.000
    O38     O    0.09946   0.55019   0.75289   1.000
    Zr39    Zr   0.97638   0.47867   0.14880   1.000
    O40     O    0.02994   0.37808   0.10810   1.000
    O41     O    0.06423   0.38378   0.10192   1.000
    O42     O    0.05583   0.37314   0.11193   1.000
    O43     O    0.05558   0.40432   0.10230   1.000
    O44     O    0.06769   0.41141   0.11197   1.000
    O45     O    0.90041   0.44978   0.24719   1.000
loop_
    _geom_bond_atom_site_label_1
    _geom_bond_atom_site_label_2
    _geom_bond_distance
    _geom_bond_site_symmetry_2
    _ccdc_geom_bond_type
    Zr4    O5        2.16065  1_655   S
    N3     O5        6.74216      .   S
    Zr4    O6        2.12313  1_655   S
    N3     O6        6.77782      .   S
    Zr4    O7        2.55946      .   S
    N1     O7        6.51805      .   S
    Zr4    O8        2.17891  1_655   S
    N3     O8        6.72605      .   S
    Zr4    O9        2.43589  1_655   S
    N3     O9        6.44675      .   S
    Zr4    O10       2.49748  1_655   S
    N3     O10       6.38577      .   S
    Zr11   O12       2.48880  1_455   S
    N2     O12       6.40204      .   S
    Zr11   O13       2.18361  1_455   S
    N2     O13       6.72947      .   S
    Zr11   O14       2.12542  1_455   S
    N2     O14       6.78373      .   S
    Zr11   O15       2.16237  1_455   S
    N2     O15       6.74862      .   S
    Zr11   O16       2.49959  1_455   S
    N2     O16       6.39188      .   S
    Zr11   O17       2.55854      .   S
    N0     O17       6.51549      .   S
    Zr18   O19       2.02566  1_454   S
    N1     O19       6.13449  1_554   S
    Zr18   O20       2.23958  1_454   S
    N1     O20       5.90750  1_554   S
    Zr18   O21       1.88146  1_454   S
    N1     O21       6.27082  1_554   S
    Zr18   O22       2.23787      .   S
    N0     O22       5.90166  1_556   S
    Zr18   O23       1.87678      .   S
    N0     O23       6.26789  1_556   S
    Zr18   O24       2.02407      .   S
    N0     O24       6.12852  1_556   S
    Zr25   O26       2.23573  1_545   S
    N3     O26       5.89732      .   S
    Zr25   O27       2.02213  1_545   S
    N3     O27       6.12396      .   S
    Zr25   O28       1.87960  1_455   S
    N2     O28       6.26657      .   S
    Zr25   O29       2.02383  1_455   S
    N2     O29       6.13022      .   S
    Zr25   O30       2.23768  1_455   S
    N2     O30       5.90333      .   S
    Zr25   O31       1.87464  1_545   S
    N3     O31       6.26346      .   S
    Zr32   O33       2.12616  1_455   S
    N1     O33       6.78338  1_554   S
    Zr32   O34       2.49951  1_455   S
    N1     O34       6.39235  1_554   S
    Zr32   O35       2.48898  1_455   S
    N1     O35       6.40220  1_554   S
    Zr32   O36       2.18324  1_455   S
    N1     O36       6.73018  1_554   S
    Zr32   O37       2.16236  1_455   S
    N1     O37       6.74899  1_554   S
    Zr32   O38       2.55874      .   S
    N3     O38       6.51595      .   S
    Zr39   O40       2.16058  1_655   S
    N0     O40       6.74304  1_556   S
    Zr39   O41       2.49765  1_655   S
    N0     O41       6.38646  1_556   S
    Zr39   O42       2.43616  1_655   S
    N0     O42       6.44729  1_556   S
    Zr39   O43       2.17866  1_655   S
    N0     O43       6.72708  1_556   S
    Zr39   O44       2.12411  1_655   S
    N0     O44       6.77770  1_556   S
    Zr39   O45       2.55941      .   S
    N2     O45       6.51802      .   S
