# CIF file generated by openbabel 2.4.90, see http://openbabel.sf.net
data_I
_chemical_name_common ''
_cell_length_a 3.9555
_cell_length_b 8.1165
_cell_length_c 26.6393
_cell_angle_alpha 90.0007
_cell_angle_beta 93.2013
_cell_angle_gamma 90.002
_space_group_name_H-M_alt 'P 1'
_space_group_name_Hall 'P 1'
loop_
    _symmetry_equiv_pos_as_xyz
    x,y,z
loop_
    _atom_site_label
    _atom_site_type_symbol
    _atom_site_fract_x
    _atom_site_fract_y
    _atom_site_fract_z
    _atom_site_occupancy
    H0      H    0.08265   0.66518   0.61764   1.000
    H1      H    0.58179   0.19626   0.61926   1.000
    H2      H    0.71101   0.24649   0.52846   1.000
    H3      H    0.42196   0.16462   0.88241   1.000
    H4      H    0.91467   0.69780   0.88028   1.000
    H5      H    0.79271   0.74589   0.97161   1.000
    H6      H    0.92197   0.33533   0.38239   1.000
    H7      H    0.41479   0.80221   0.38030   1.000
    H8      H    0.29287   0.75415   0.47161   1.000
    H9      H    0.58261   0.83485   0.11763   1.000
    H10     H    0.08190   0.30371   0.11926   1.000
    H11     H    0.21108   0.25338   0.02845   1.000
    C12     C    0.46232   0.48280   0.52640   1.000
    C13     C    0.22441   0.57060   0.59866   1.000
    C14     C    0.32034   0.42764   0.62535   1.000
    C15     C    0.49701   0.30794   0.59957   1.000
    C16     C    0.56770   0.33485   0.54972   1.000
    C17     C    0.03781   0.98322   0.97338   1.000
    C18     C    0.27820   0.07051   0.90127   1.000
    C19     C    0.18024   0.92810   0.87447   1.000
    C20     C    0.00110   0.80895   0.90009   1.000
    C21     C    0.93030   0.83580   0.94994   1.000
    C22     C    0.53787   0.51675   0.47338   1.000
    C23     C    0.77824   0.42944   0.40126   1.000
    C24     C    0.68029   0.57190   0.37448   1.000
    C25     C    0.50119   0.69104   0.40011   1.000
    C26     C    0.43039   0.66418   0.44995   1.000
    C27     C    0.96234   0.01719   0.02639   1.000
    C28     C    0.72440   0.92942   0.09866   1.000
    C29     C    0.82036   0.07235   0.12534   1.000
    C30     C    0.99709   0.19204   0.09957   1.000
    C31     C    0.06777   0.16513   0.04972   1.000
    N32     N    0.29214   0.60001   0.55081   1.000
    N33     N    0.21012   0.09991   0.94911   1.000
    N34     N    0.71017   0.40001   0.44910   1.000
    N35     N    0.79212   0.90001   0.05080   1.000
loop_
    _geom_bond_atom_site_label_1
    _geom_bond_atom_site_label_2
    _geom_bond_distance
    _geom_bond_site_symmetry_2
    _ccdc_geom_bond_type
    C27    C31       1.40465  1_655   S
    C27    N35       1.35264  1_545   S
    C27    C17       1.48555  1_644   S
    H11    C31       1.09146      .   S
    C31    C30       1.38955  1_455   S
    N35    C28       1.33863      .   S
    C28    H9        1.09132      .   S
    C28    C29       1.40179  1_565   S
    C30    H10       1.09064  1_655   S
    C30    C29       1.39902      .   S
    C24    C25       1.39900      .   S
    C24    C23       1.40192      .   S
    H7     C25       1.09058      .   S
    H6     C23       1.09135      .   S
    C25    C26       1.38932      .   S
    C23    N34       1.33872      .   S
    N34    C22       1.35280      .   S
    C26    H8        1.09417      .   S
    C26    C22       1.40458      .   S
    C22    C12       1.48550      .   S
    C12    C16       1.40467      .   S
    C12    N32       1.35279      .   S
    H2     C16       1.09196      .   S
    C16    C15       1.38956      .   S
    N32    C13       1.33861      .   S
    C13    H0        1.09131      .   S
    C13    C14       1.40196      .   S
    C15    H1        1.09062      .   S
    C15    C14       1.39903      .   S
    C19    C20       1.39899      .   S
    C19    C18       1.40169  1_565   S
    H4     C20       1.09059  1_655   S
    H3     C18       1.09135      .   S
    C20    C21       1.38932  1_455   S
    C18    N33       1.33868      .   S
    N33    C17       1.35232  1_545   S
    C21    H5        1.09409      .   S
    C21    C17       1.40457  1_655   S
