# CIF file generated by openbabel 2.4.90, see http://openbabel.sf.net
data_I
_chemical_name_common ''
_cell_length_a 22.353
_cell_length_b 16.76
_cell_length_c 18.262
_cell_angle_alpha 62.678
_cell_angle_beta 72.41
_cell_angle_gamma 90.054
_space_group_name_H-M_alt 'P 1'
_space_group_name_Hall 'P 1'
loop_
    _symmetry_equiv_pos_as_xyz
    x,y,z
loop_
    _atom_site_label
    _atom_site_type_symbol
    _atom_site_fract_x
    _atom_site_fract_y
    _atom_site_fract_z
    _atom_site_occupancy
    Zn0     Zn   0.78974   0.78889   0.64776   1.000
    Zn1     Zn   0.29865   0.46637   0.16006   1.000
    Zn2     Zn   0.79725   0.46581   0.16043   1.000
    Zn3     Zn   0.20847   0.43552   0.35344   1.000
    Zn4     Zn   0.70843   0.43566   0.35355   1.000
    Zn5     Zn   0.20265   0.62603   0.84003   1.000
    Zn6     Zn   0.70095   0.62559   0.84059   1.000
    Zn7     Zn   0.38544   0.28882   0.64780   1.000
    Zn8     Zn   0.88541   0.28868   0.64792   1.000
    Zn9     Zn   0.12031   0.96581   0.16006   1.000
    Zn10    Zn   0.62032   0.96555   0.16020   1.000
    Zn11    Zn   0.11440   0.93598   0.35299   1.000
    Zn12    Zn   0.61440   0.93572   0.35319   1.000
    Zn13    Zn   0.37958   0.12592   0.84090   1.000
    Zn14    Zn   0.87941   0.12589   0.84090   1.000
    Zn15    Zn   0.29147   0.78932   0.64707   1.000
