# CIF file generated by openbabel 2.4.90, see http://openbabel.sf.net
data_I
_chemical_name_common ''
_cell_length_a 22.353
_cell_length_b 16.76
_cell_length_c 18.262
_cell_angle_alpha 62.678
_cell_angle_beta 72.41
_cell_angle_gamma 90.054
_space_group_name_H-M_alt 'P 1'
_space_group_name_Hall 'P 1'
loop_
    _symmetry_equiv_pos_as_xyz
    x,y,z
loop_
    _atom_site_label
    _atom_site_type_symbol
    _atom_site_fract_x
    _atom_site_fract_y
    _atom_site_fract_z
    _atom_site_occupancy
    N0      N    0.72338   0.95435   0.85173   1.000
    N1      N    0.60333   0.50640   0.56181   1.000
    N2      N    0.89545   0.06763   0.43904   1.000
    N3      N    0.85099   0.45467   0.85133   1.000
    N4      N    0.35151   0.45467   0.85139   1.000
    N5      N    0.39625   0.06804   0.43871   1.000
    N6      N    0.14879   0.30538   0.14896   1.000
    N7      N    0.64848   0.30516   0.14919   1.000
    N8      N    0.10385   0.50661   0.56176   1.000
    N9      N    0.38429   0.56821   0.43881   1.000
    N10     N    0.88432   0.56814   0.43875   1.000
    N11     N    0.22370   0.95466   0.85147   1.000
    N12     N    0.27633   0.80586   0.14936   1.000
    N13     N    0.77629   0.80571   0.14942   1.000
    N14     N    0.11512   0.00649   0.56198   1.000
    N15     N    0.61520   0.00658   0.56226   1.000
    Zr16    Zr   0.87941   0.12589   0.84090   1.000
    O17     O    0.84882   0.03348   0.93252   1.000
    O18     O    0.87214   0.22199   0.84538   1.000
    O19     O    0.83396   0.08867   0.83307   1.000
    O20     O    0.94901   0.09628   0.76189   1.000
    Zr21    Zr   0.61440   0.93572   0.35319   1.000
    O22     O    0.54735   0.83265   0.37685   1.000
    O23     O    0.61941   0.04346   0.29400   1.000
    O24     O    0.66205   0.90214   0.28867   1.000
    Zr25    Zr   0.37958   0.12592   0.84090   1.000
    O26     O    0.33416   0.08880   0.83301   1.000
    O27     O    0.44917   0.09635   0.76195   1.000
    O28     O    0.34894   0.03354   0.93250   1.000
    O29     O    0.37240   0.22199   0.84541   1.000
    Zr30    Zr   0.70095   0.62559   0.84059   1.000
    O31     O    0.68542   0.53306   0.93219   1.000
    O32     O    0.75009   0.58857   0.83266   1.000
    O33     O    0.67041   0.59607   0.76162   1.000
    O34     O    0.70582   0.72165   0.84531   1.000
    Zr35    Zr   0.11440   0.93598   0.35299   1.000
    O36     O    0.04737   0.83282   0.37669   1.000
    O37     O    0.11948   0.04370   0.29381   1.000
    O38     O    0.16206   0.90237   0.28850   1.000
    Zr39    Zr   0.88541   0.28868   0.64792   1.000
    O40     O    0.88031   0.33745   0.70689   1.000
    O41     O    0.83772   0.19041   0.71246   1.000
    O42     O    0.95233   0.20920   0.62417   1.000
    Zr43    Zr   0.62032   0.96555   0.16020   1.000
    O44     O    0.55062   0.85719   0.23913   1.000
    O45     O    0.62751   0.06625   0.15552   1.000
    O46     O    0.66576   0.92078   0.16805   1.000
    O47     O    0.65091   0.96489   0.06860   1.000
    Zr48    Zr   0.38544   0.28882   0.64780   1.000
    O49     O    0.33783   0.19061   0.71233   1.000
    O50     O    0.45238   0.20932   0.62417   1.000
    O51     O    0.38047   0.33752   0.70686   1.000
    Zr52    Zr   0.29147   0.78932   0.64707   1.000
    O53     O    0.26705   0.83786   0.70637   1.000
    O54     O    0.23614   0.70977   0.62346   1.000
    O55     O    0.30696   0.69099   0.71172   1.000
    Zr56    Zr   0.78974   0.78889   0.64776   1.000
    O57     O    0.80558   0.69063   0.71214   1.000
    O58     O    0.73478   0.70937   0.62399   1.000
    O59     O    0.76567   0.83747   0.70694   1.000
    Zr60    Zr   0.12031   0.96581   0.16006   1.000
    O61     O    0.05063   0.85734   0.23901   1.000
    O62     O    0.12757   0.06650   0.15537   1.000
    O63     O    0.15098   0.96514   0.06843   1.000
    O64     O    0.16576   0.92101   0.16792   1.000
    Zr65    Zr   0.29865   0.46637   0.16006   1.000
    O66     O    0.24954   0.42119   0.16783   1.000
    O67     O    0.29384   0.56702   0.15548   1.000
    O68     O    0.31439   0.46550   0.06842   1.000
    O69     O    0.32908   0.35773   0.23909   1.000
    Zr70    Zr   0.79725   0.46581   0.16043   1.000
    O71     O    0.74847   0.42077   0.16820   1.000
    O72     O    0.82792   0.35721   0.23937   1.000
    O73     O    0.81322   0.46512   0.06866   1.000
    O74     O    0.79290   0.56659   0.15574   1.000
    Zr75    Zr   0.20847   0.43552   0.35344   1.000
    O76     O    0.19318   0.40191   0.28869   1.000
    O77     O    0.23293   0.54356   0.29422   1.000
    O78     O    0.26386   0.33257   0.37707   1.000
    Zr79    Zr   0.70843   0.43566   0.35355   1.000
    O80     O    0.69296   0.40193   0.28890   1.000
    O81     O    0.73288   0.54360   0.29430   1.000
    O82     O    0.76362   0.33257   0.37720   1.000
    Zr83    Zr   0.20265   0.62603   0.84003   1.000
    O84     O    0.20701   0.72205   0.84483   1.000
    O85     O    0.18665   0.53342   0.93173   1.000
    O86     O    0.17181   0.59642   0.76119   1.000
    O87     O    0.25145   0.58894   0.83232   1.000
    O88     O    0.11694   0.95412   0.41519   1.000
    O89     O    0.38278   0.36922   0.58562   1.000
    O90     O    0.32498   0.86951   0.58508   1.000
    O91     O    0.88276   0.36910   0.58568   1.000
    O92     O    0.17501   0.45392   0.41542   1.000
    O93     O    0.61695   0.95397   0.41540   1.000
    O94     O    0.67484   0.45396   0.41550   1.000
    O95     O    0.82353   0.86909   0.58566   1.000
loop_
    _geom_bond_atom_site_label_1
    _geom_bond_atom_site_label_2
    _geom_bond_distance
    _geom_bond_site_symmetry_2
    _ccdc_geom_bond_type
    Zr16   O17       1.61047      .   S
    N13    O17       3.88811  1_564   S
    Zr16   O18       1.65543      .   S
    N3     O18       3.97552      .   S
    Zr16   O19       1.26889      .   S
    N0     O19       3.17337  1_565   S
    Zr16   O20       2.01281      .   S
    N14    O20       5.12247  1_455   S
    Zr21   O22       2.08215      .   S
    N9     O22       5.20409      .   S
    Zr21   O23       1.60507  1_565   S
    N7     O23       3.86809      .   S
    Zr21   O24       1.64045      .   S
    N13    O24       3.93120      .   S
    Zr25   O26       1.26805      .   S
    N11    O26       3.17109  1_565   S
    Zr25   O27       2.01145      .   S
    N15    O27       5.11891      .   S
    Zr25   O28       1.61008      .   S
    N12    O28       3.88723  1_564   S
    Zr25   O29       1.65513      .   S
    N4     O29       3.97510      .   S
    Zr30   O31       1.60948      .   S
    N7     O31       3.88539  1_554   S
    Zr30   O32       1.26485      .   S
    N3     O32       3.16399      .   S
    Zr30   O33       2.00997      .   S
    N1     O33       5.11463      .   S
    Zr30   O34       1.65651      .   S
    N0     O34       3.97787      .   S
    Zr35   O36       2.08286      .   S
    N10    O36       5.20599  1_655   S
    Zr35   O37       1.60465  1_565   S
    N6     O37       3.86766      .   S
    Zr35   O38       1.64043      .   S
    N12    O38       3.93127      .   S
    Zr39   O40       1.60463      .   S
    N3     O40       3.86803      .   S
    Zr39   O41       1.64123      .   S
    N0     O41       3.93298  1_565   S
    Zr39   O42       2.08376      .   S
    N14    O42       5.20980  1_455   S
    Zr43   O44       2.00941      .   S
    N9     O44       5.11252      .   S
    Zr43   O45       1.65543  1_565   S
    N7     O45       3.97556      .   S
    Zr43   O46       1.26705      .   S
    N13    O46       3.16909      .   S
    Zr43   O47       1.60984      .   S
    N0     O47       3.88659  1_556   S
    Zr48   O49       1.63979      .   S
    N11    O49       3.92964  1_565   S
    Zr48   O50       2.08358      .   S
    N15    O50       5.20898      .   S
    Zr48   O51       1.60546      .   S
    N4     O51       3.86891      .   S
    Zr52   O53       1.60781      .   S
    N11    O53       3.87368      .   S
    Zr52   O54       2.08323      .   S
    N8     O54       5.20827      .   S
    Zr52   O55       1.64061      .   S
    N4     O55       3.93106      .   S
    Zr56   O57       1.64164      .   S
    N3     O57       3.93316      .   S
    Zr56   O58       2.07950      .   S
    N1     O58       5.19997      .   S
    Zr56   O59       1.60540      .   S
    N0     O59       3.86925      .   S
    Zr60   O61       2.01023      .   S
    N10    O61       5.11451  1_655   S
    Zr60   O62       1.65520  1_565   S
    N6     O62       3.97517      .   S
    Zr60   O63       1.61062      .   S
    N11    O63       3.88821  1_556   S
    Zr60   O64       1.26758      .   S
    N12    O64       3.17041      .   S
    Zr65   O66       1.26653      .   S
    N6     O66       3.16732      .   S
    Zr65   O67       1.65550      .   S
    N12    O67       3.97587      .   S
    Zr65   O68       1.60976      .   S
    N4     O68       3.88616  1_556   S
    Zr65   O69       2.01110      .   S
    N5     O69       5.11761      .   S
    Zr70   O71       1.25909      .   S
    N7     O71       3.15421      .   S
    Zr70   O72       2.01304      .   S
    N2     O72       5.12101      .   S
    Zr70   O73       1.61014      .   S
    N3     O73       3.88696  1_556   S
    Zr70   O74       1.65604      .   S
    N13    O74       3.97694      .   S
    Zr75   O76       1.63938      .   S
    N6     O76       3.92815      .   S
    Zr75   O77       1.60946      .   S
    N12    O77       3.87692      .   S
    Zr75   O78       2.08314      .   S
    N5     O78       5.20928      .   S
    Zr79   O80       1.64081      .   S
    N7     O80       3.93148      .   S
    Zr79   O81       1.60817      .   S
    N13    O81       3.87435      .   S
    Zr79   O82       2.08185      .   S
    N2     O82       5.20673      .   S
    Zr83   O84       1.65567      .   S
    N11    O84       3.97629      .   S
    Zr83   O85       1.61016      .   S
    N6     O85       3.88671  1_554   S
    Zr83   O86       2.01241      .   S
    N8     O86       5.11953      .   S
    Zr83   O87       1.25898      .   S
    N4     O87       3.15411      .   S
    Zr35   O88       1.31979      .   S
    N14    O88       3.17044  1_545   S
    Zr48   O89       1.32108      .   S
    N9     O89       3.16993      .   S
    Zr52   O90       1.31829      .   S
    N5     O90       3.16319  1_545   S
    Zr39   O91       1.32158      .   S
    N10    O91       3.17103      .   S
    Zr75   O92       1.32099      .   S
    N8     O92       3.17043      .   S
    Zr21   O93       1.32123      .   S
    N15    O93       3.17472  1_545   S
    Zr79   O94       1.32040      .   S
    N1     O94       3.16914      .   S
    N2     O95       3.16793  1_545   S
    Zr56   O95       1.32078      .   S
