# CIF file generated by openbabel 2.4.90, see http://openbabel.sf.net
data_I
_chemical_name_common ''
_cell_length_a 10.086
_cell_length_b 11.597
_cell_length_c 14.793
_cell_angle_alpha 91.115
_cell_angle_beta 90.06
_cell_angle_gamma 90.013
_space_group_name_H-M_alt 'P 1'
_space_group_name_Hall 'P 1'
loop_
    _symmetry_equiv_pos_as_xyz
    x,y,z
loop_
    _atom_site_label
    _atom_site_type_symbol
    _atom_site_fract_x
    _atom_site_fract_y
    _atom_site_fract_z
    _atom_site_occupancy
    Zn0     Zn   0.88766   0.74044   0.30948   1.000
    Zn1     Zn   0.57641   0.74509   0.37071   1.000
    Zn2     Zn   0.38720   0.75955   0.19071   1.000
    Zn3     Zn   0.92483   0.24507   0.87066   1.000
    Zn4     Zn   0.11230   0.25957   0.69049   1.000
    Zn5     Zn   0.42356   0.25492   0.62926   1.000
    Zn6     Zn   0.61277   0.24045   0.80926   1.000
    Zn7     Zn   0.99999   0.50000   0.99999   1.000
    Zn8     Zn   0.49999   0.00000   0.49999   1.000
    Zn9     Zn   0.00000   0.00000   1.00000   1.000
    Zn10    Zn   0.49998   0.50000   0.49999   1.000
    H11     H    0.24774   0.85672   0.37230   1.000
    H12     H    0.95348   0.47547   0.27198   1.000
    H13     H    0.39203   0.56192   0.04272   1.000
    H14     H    0.79762   0.98018   0.23511   1.000
    H15     H    0.83637   0.69086   0.92031   1.000
    H16     H    0.29319   0.00378   0.01221   1.000
    H17     H    0.74724   0.64346   0.12770   1.000
    H18     H    0.45331   0.02457   0.22822   1.000
    H19     H    0.89275   0.93862   0.45752   1.000
    H20     H    0.29742   0.52003   0.26483   1.000
    H21     H    0.33635   0.80932   0.57885   1.000
    H22     H    0.79379   0.49590   0.48775   1.000
    H23     H    0.75223   0.14328   0.62767   1.000
    H24     H    0.04649   0.52452   0.72798   1.000
    H25     H    0.60793   0.43808   0.95724   1.000
    H26     H    0.20234   0.01983   0.76485   1.000
    H27     H    0.16360   0.30914   0.07964   1.000
    H28     H    0.70678   0.99622   0.98776   1.000
    H29     H    0.25273   0.35655   0.87226   1.000
    H30     H    0.54664   0.97542   0.77174   1.000
    H31     H    0.10722   0.06139   0.54244   1.000
    Zn32    Zn   0.07515   0.75493   0.12931   1.000
    H33     H    0.70256   0.47997   0.73513   1.000
    H34     H    0.66362   0.19069   0.42111   1.000
    H35     H    0.20618   0.50410   0.51221   1.000
    C36     C    0.16585   0.82406   0.32946   1.000
    C37     C    0.97897   0.51977   0.20881   1.000
    C38     C    0.28429   0.57722   0.04983   1.000
    C39     C    0.86900   0.95171   0.18243   1.000
    C40     C    0.89796   0.74362   0.96683   1.000
    C41     C    0.27537   0.93065   0.05711   1.000
    C42     C    0.66552   0.67603   0.17061   1.000
    C43     C    0.47893   0.98021   0.29137   1.000
    C44     C    0.78503   0.92306   0.45030   1.000
    C45     C    0.36897   0.54841   0.31756   1.000
    C46     C    0.39824   0.75646   0.53271   1.000
    C47     C    0.77588   0.56912   0.44293   1.000
    C48     C    0.83412   0.17595   0.67051   1.000
    C49     C    0.02100   0.48023   0.79116   1.000
    C50     C    0.71568   0.42279   0.95013   1.000
    C51     C    0.13096   0.04830   0.81754   1.000
    C52     C    0.10201   0.25639   0.03313   1.000
    C53     C    0.72460   0.06935   0.94286   1.000
    C54     C    0.33445   0.32397   0.82935   1.000
    C55     C    0.52103   0.01980   0.70859   1.000
    C56     C    0.21493   0.07694   0.54967   1.000
    C57     C    0.63101   0.45159   0.68241   1.000
    C58     C    0.60172   0.24354   0.46725   1.000
    C59     C    0.22409   0.43088   0.55704   1.000
    O60     O    0.19393   0.80029   0.24658   1.000
    O61     O    0.05407   0.81462   0.36650   1.000
    O62     O    0.98377   0.63056   0.21457   1.000
    O63     O    0.00058   0.45970   0.13926   1.000
    O64     O    0.25137   0.65369   0.11011   1.000
    O65     O    0.20742   0.51953   0.00009   1.000
    O66     O    0.91656   0.84986   0.19191   1.000
    O67     O    0.89405   0.02050   0.12059   1.000
    O68     O    0.97297   0.68549   0.02042   1.000
    O69     O    0.88827   0.85075   0.96412   1.000
    O70     O    0.15385   0.89703   0.06260   1.000
    O71     O    0.37352   0.88954   0.09744   1.000
    O72     O    0.69406   0.69975   0.25348   1.000
    O73     O    0.55356   0.68542   0.13367   1.000
    O74     O    0.48408   0.86946   0.28551   1.000
    O75     O    0.50043   0.04029   0.36100   1.000
    O76     O    0.75234   0.84643   0.38998   1.000
    O77     O    0.70800   0.98056   0.49988   1.000
    O78     O    0.41674   0.65019   0.30815   1.000
    O79     O    0.39400   0.47951   0.37936   1.000
    O80     O    0.47351   0.81448   0.47931   1.000
    O81     O    0.38854   0.64934   0.53563   1.000
    O82     O    0.65436   0.60268   0.43738   1.000
    O83     O    0.87397   0.61037   0.40270   1.000
    O84     O    0.80604   0.19971   0.75339   1.000
    O85     O    0.94590   0.18538   0.63346   1.000
    O86     O    0.01620   0.36944   0.78540   1.000
    O87     O    0.99938   0.54031   0.86071   1.000
    O88     O    0.74860   0.34631   0.88985   1.000
    O89     O    0.79255   0.48047   0.99988   1.000
    O90     O    0.08340   0.15014   0.80806   1.000
    O91     O    0.10592   0.97950   0.87937   1.000
    O92     O    0.02699   0.31451   0.97954   1.000
    O93     O    0.11169   0.14925   0.03584   1.000
    O94     O    0.84612   0.10297   0.93737   1.000
    O95     O    0.62645   0.11046   0.90253   1.000
    O96     O    0.30591   0.30025   0.74649   1.000
    O97     O    0.44641   0.31458   0.86629   1.000
    O98     O    0.51589   0.13054   0.71447   1.000
    O99     O    0.49954   0.95972   0.63896   1.000
    O100    O    0.24762   0.15357   0.60999   1.000
    O101    O    0.29197   0.01944   0.50008   1.000
    O102    O    0.58323   0.34981   0.69182   1.000
    O103    O    0.60597   0.52049   0.62061   1.000
    O104    O    0.52645   0.18553   0.52065   1.000
    O105    O    0.61143   0.35066   0.46434   1.000
    O106    O    0.34561   0.39732   0.56259   1.000
    O107    O    0.12600   0.38963   0.59726   1.000
loop_
    _geom_bond_atom_site_label_1
    _geom_bond_atom_site_label_2
    _geom_bond_distance
    _geom_bond_site_symmetry_2
    _ccdc_geom_bond_type
    O65    C38       1.25280      .   S
    O65    Zn7       2.10424  1_454   S
    H16    C41       1.10230  1_545   S
    O68    Zn32      2.06180  1_655   S
    O68    C40       1.29425  1_554   S
    C52    O93       1.24773      .   S
    C52    H27       1.10280      .   S
    C52    O92       1.29425  1_554   S
    O93    Zn9       2.12326  1_554   S
    H13    C38       1.10591      .   S
    C38    O64       1.28920      .   S
    C41    O70       1.28917      .   S
    C41    O71       1.25432      .   S
    O70    Zn32      2.09377      .   S
    O71    Zn2       2.06784      .   S
    O64    Zn32      2.14644      .   S
    O67    C39       1.25129  1_545   S
    O67    Zn9       2.09016  1_654   S
    H17    C42       1.10311      .   S
    Zn32   O66       2.14294  1_455   S
    Zn32   O60       2.16358      .   S
    O73    C42       1.25963      .   S
    O73    Zn2       2.05949      .   S
    O63    C37       1.25059  1_455   S
    O63    Zn7       2.12129  1_454   S
    C42    O72       1.28347      .   S
    C39    O66       1.28507      .   S
    C39    H14       1.10729      .   S
    Zn2    O74       2.11495      .   S
    C37    O62       1.28690      .   S
    C37    H12       1.10561      .   S
    O62    Zn0       2.11388      .   S
    H18    C43       1.10562  1_545   S
    O60    C36       1.28331      .   S
    O72    Zn1       2.15902      .   S
    H20    C45       1.10732      .   S
    O74    C43       1.28663      .   S
    C43    O75       1.25095  1_565   S
    O78    C45       1.28492      .   S
    O78    Zn1       2.14885      .   S
    Zn0    O61       2.05832  1_655   S
    Zn0    O83       2.06813      .   S
    C45    O79       1.25141      .   S
    C36    O61       1.25974      .   S
    C36    H11       1.10305      .   S
    O75    Zn8       2.11734      .   S
    Zn1    O76       2.14392      .   S
    Zn1    O82       2.09295      .   S
    Zn1    O80       2.06378      .   S
    O79    Zn10      2.08871      .   S
    O76    C44       1.28960      .   S
    O83    C47       1.25448      .   S
    H34    C58       1.10283      .   S
    O82    C47       1.28909      .   S
    C47    H22       1.10235      .   S
    C44    H19       1.10595      .   S
    C44    O77       1.25251      .   S
    O105   C58       1.24769      .   S
    O105   Zn10      2.12308      .   S
    C58    O104      1.29408      .   S
    O80    C46       1.29409      .   S
    O77    Zn8       2.11010  1_565   S
    Zn8    O101      2.11017      .   S
    Zn8    O99       2.11718  1_545   S
    Zn10   O81       2.12308      .   S
    Zn10   O103      2.08863      .   S
    O101   C56       1.25252      .   S
    H35    C59       1.10235      .   S
    O104   Zn5       2.06387      .   S
    C46    O81       1.24769      .   S
    C46    H21       1.10284      .   S
    H31    C56       1.10595      .   S
    C56    O100      1.28960      .   S
    C59    O106      1.28908      .   S
    C59    O107      1.25449      .   S
    O106   Zn5       2.09297      .   S
    O107   Zn4       2.06816      .   S
    O100   Zn5       2.14396      .   S
    O103   C57       1.25141      .   S
    H23    C48       1.10305      .   S
    Zn5    O102      2.14885      .   S
    Zn5    O96       2.15894      .   S
    O85    C48       1.25975      .   S
    O85    Zn4       2.05834  1_655   S
    O99    C55       1.25096  1_565   S
    C48    O84       1.28329      .   S
    C57    O102      1.28493      .   S
    C57    H33       1.10732      .   S
    Zn4    O86       2.11386      .   S
    C55    O98       1.28661      .   S
    C55    H30       1.10561  1_545   S
    O98    Zn6       2.11498      .   S
    H24    C49       1.10564      .   S
    O96    C54       1.28346      .   S
    O84    Zn3       2.16368      .   S
    H26    C51       1.10730      .   S
    O86    C49       1.28689      .   S
    C49    O87       1.25060  1_455   S
    O90    C51       1.28508      .   S
    O90    Zn3       2.14281  1_455   S
    Zn6    O97       2.05949      .   S
    Zn6    O95       2.06782      .   S
    C51    O91       1.25129  1_545   S
    C54    O97       1.25964      .   S
    C54    H29       1.10310      .   S
    O87    Zn7       2.12172      .   S
    Zn3    O88       2.14647      .   S
    Zn3    O94       2.09374      .   S
    Zn3    O92       2.06164  1_655   S
    O91    Zn9       2.09031  1_565   S
    O88    C50       1.28920      .   S
    O95    C53       1.25429      .   S
    H15    C40       1.10281      .   S
    O94    C53       1.28917      .   S
    C53    H28       1.10231  1_545   S
    C50    H25       1.10592      .   S
    C50    O89       1.25281      .   S
    O69    C40       1.24773      .   S
    O69    Zn9       2.12352  1_665   S
    O89    Zn7       2.10442      .   S
    O60    Zn2       2.16678      .   S
    O62    Zn32      2.14316  1_655   S
    O64    Zn2       2.17812      .   S
    O66    Zn0       2.19251      .   S
    O68    Zn7       2.18360  1_554   S
    O70    Zn9       2.17539  1_564   S
    O72    Zn0       2.16865      .   S
    O74    Zn1       2.14602      .   S
    O76    Zn0       2.17689      .   S
    O78    Zn2       2.19097      .   S
    O80    Zn8       2.18353  1_565   S
    O82    Zn10      2.17832      .   S
    O84    Zn6       2.16678      .   S
    O86    Zn3       2.14310  1_455   S
    O88    Zn6       2.17808      .   S
    O90    Zn4       2.19249      .   S
    O92    Zn7       2.18359  1_455   S
    O94    Zn9       2.17581  1_655   S
    O96    Zn4       2.16864      .   S
    O98    Zn5       2.14600      .   S
    O100   Zn4       2.17694      .   S
    O102   Zn6       2.19098      .   S
    O104   Zn8       2.18349      .   S
    O106   Zn10      2.17828      .   S
