# CIF file generated by openbabel 2.4.90, see http://openbabel.sf.net
data_I
_chemical_name_common ''
_cell_length_a 13.183
_cell_length_b 13.173
_cell_length_c 13.98
_cell_angle_alpha 105.565
_cell_angle_beta 105.292
_cell_angle_gamma 93.379
_space_group_name_H-M_alt 'P 1'
_space_group_name_Hall 'P 1'
loop_
    _symmetry_equiv_pos_as_xyz
    x,y,z
loop_
    _atom_site_label
    _atom_site_type_symbol
    _atom_site_fract_x
    _atom_site_fract_y
    _atom_site_fract_z
    _atom_site_occupancy
    N0      N    0.18705   0.81237   0.24976   1.000
    N1      N    0.65519   0.84791   0.74554   1.000
    N2      N    0.15183   0.34473   0.75440   1.000
    N3      N    0.34484   0.15211   0.25444   1.000
    N4      N    0.81298   0.18765   0.75025   1.000
    N5      N    0.84820   0.65530   0.24561   1.000
    Zr6     Zr   0.15744   0.84252   0.75001   1.000
    O7      O    0.15817   0.82830   0.57793   1.000
    O8      O    0.17144   0.84167   0.92195   1.000
    Zr9     Zr   0.84258   0.15751   0.25001   1.000
    O10     O    0.84186   0.17173   0.42209   1.000
    O11     O    0.82859   0.15836   0.07807   1.000
    O12     O    0.15694   0.98833   0.75471   1.000
    O13     O    0.15456   0.69840   0.74880   1.000
    O14     O    0.30151   0.84532   0.75109   1.000
    O15     O    0.01164   0.84299   0.74536   1.000
    O16     O    0.98838   0.15703   0.25465   1.000
    O17     O    0.69851   0.15471   0.24892   1.000
    O18     O    0.84308   0.01169   0.24531   1.000
    O19     O    0.84547   0.30162   0.25122   1.000
loop_
    _geom_bond_atom_site_label_1
    _geom_bond_atom_site_label_2
    _geom_bond_distance
    _geom_bond_site_symmetry_2
    _ccdc_geom_bond_type
    Zr6    O7        2.36494      .   S
    N0     O7        4.65308      .   S
    Zr6    O8        2.36488      .   S
    N0     O8        4.65346  1_554   S
    Zr9    O10       2.36490      .   S
    N4     O10       4.65295      .   S
    Zr9    O11       2.36493      .   S
    N4     O11       4.65356  1_556   S
    Zr6    O12       1.90469      .   S
    N2     O12       4.70042  1_545   S
    Zr6    O13       1.89199      .   S
    N2     O13       4.67877      .   S
    Zr6    O14       1.89340      .   S
    N1     O14       4.68187      .   S
    Zr6    O15       1.90644      .   S
    N1     O15       4.70405  1_655   S
    N3     O16       4.70416  1_455   S
    Zr9    O16       1.90647      .   S
    N3     O17       4.68174      .   S
    Zr9    O17       1.89336      .   S
    N5     O18       4.70040  1_565   S
    Zr9    O18       1.90468      .   S
    N5     O19       4.67878      .   S
    Zr9    O19       1.89200      .   S
