# CIF file generated by openbabel 2.4.90, see http://openbabel.sf.net
data_I
_chemical_name_common ''
_cell_length_a 13.183
_cell_length_b 13.173
_cell_length_c 13.98
_cell_angle_alpha 105.565
_cell_angle_beta 105.292
_cell_angle_gamma 93.379
_space_group_name_H-M_alt 'P 1'
_space_group_name_Hall 'P 1'
loop_
    _symmetry_equiv_pos_as_xyz
    x,y,z
loop_
    _atom_site_label
    _atom_site_type_symbol
    _atom_site_fract_x
    _atom_site_fract_y
    _atom_site_fract_z
    _atom_site_occupancy
    N0      N    0.18705   0.81237   0.24976   1.000
    N1      N    0.65519   0.84791   0.74554   1.000
    N2      N    0.15183   0.34473   0.75440   1.000
    N3      N    0.34484   0.15211   0.25444   1.000
    N4      N    0.81298   0.18765   0.75025   1.000
    N5      N    0.84820   0.65530   0.24561   1.000
    Zr6     Zr   0.15744   0.84252   0.75001   1.000
    O7      O    0.15817   0.82830   0.57793   1.000
    O8      O    0.14653   0.69285   0.72393   1.000
    O9      O    0.15393   0.98300   0.73016   1.000
    O10     O    0.00637   0.83995   0.72082   1.000
    O11     O    0.29602   0.83726   0.72622   1.000
    O12     O    0.30700   0.85338   0.77597   1.000
    O13     O    0.17144   0.84167   0.92195   1.000
    O14     O    0.15996   0.99366   0.77926   1.000
    O15     O    0.16259   0.70395   0.77366   1.000
    O16     O    0.01692   0.84603   0.76991   1.000
    Zr17    Zr   0.84258   0.15751   0.25001   1.000
    O18     O    0.99366   0.16008   0.27919   1.000
    O19     O    0.70400   0.16277   0.27379   1.000
    O20     O    0.84186   0.17173   0.42209   1.000
    O21     O    0.85350   0.30717   0.27608   1.000
    O22     O    0.84610   0.01703   0.26986   1.000
    O23     O    0.69303   0.14664   0.22404   1.000
    O24     O    0.98311   0.15399   0.23010   1.000
    O25     O    0.82859   0.15836   0.07807   1.000
    O26     O    0.83743   0.29607   0.22635   1.000
    O27     O    0.84007   0.00636   0.22076   1.000
loop_
    _geom_bond_atom_site_label_1
    _geom_bond_atom_site_label_2
    _geom_bond_distance
    _geom_bond_site_symmetry_2
    _ccdc_geom_bond_type
    Zr6    O7        2.36494      .   S
    N0     O7        4.65308      .   S
    Zr6    O8        1.89574      .   S
    N2     O8        4.72085      .   S
    Zr6    O9        1.94492      .   S
    N2     O9        4.68777  1_545   S
    Zr6    O10       1.92097      .   S
    N1     O10       4.73769  1_655   S
    Zr6    O11       1.94321      .   S
    N1     O11       4.66244      .   S
    Zr6    O12       1.89757      .   S
    N1     O12       4.72318      .   S
    Zr6    O13       2.36488      .   S
    N0     O13       4.65346  1_554   S
    Zr6    O14       1.91851      .   S
    N2     O14       4.73501  1_545   S
    Zr6    O15       1.94225      .   S
    N2     O15       4.65856      .   S
    Zr6    O16       1.94594      .   S
    N1     O16       4.69235  1_655   S
    Zr17   O18       1.92098      .   S
    N3     O18       4.73783  1_455   S
    Zr17   O19       1.94315      .   S
    N3     O19       4.66234      .   S
    Zr17   O20       2.36490      .   S
    N4     O20       4.65295      .   S
    Zr17   O21       1.89574      .   S
    N5     O21       4.72086      .   S
    Zr17   O22       1.94491      .   S
    N5     O22       4.68776  1_565   S
    Zr17   O23       1.89755      .   S
    N3     O23       4.72303      .   S
    Zr17   O24       1.94599      .   S
    N3     O24       4.69244  1_455   S
    Zr17   O25       2.36493      .   S
    N4     O25       4.65356  1_556   S
    Zr17   O26       1.94226      .   S
    N5     O26       4.65857      .   S
    Zr17   O27       1.91851      .   S
    N5     O27       4.73499  1_565   S
