# CIF file generated by openbabel 2.4.90, see http://openbabel.sf.net
data_I
_chemical_name_common ''
_cell_length_a 14.559
_cell_length_b 15.905
_cell_length_c 18.506
_cell_angle_alpha 89.983
_cell_angle_beta 86.855
_cell_angle_gamma 90.096
_space_group_name_H-M_alt 'P 1'
_space_group_name_Hall 'P 1'
loop_
    _symmetry_equiv_pos_as_xyz
    x,y,z
loop_
    _atom_site_label
    _atom_site_type_symbol
    _atom_site_fract_x
    _atom_site_fract_y
    _atom_site_fract_z
    _atom_site_occupancy
    Zn0     Zn   0.17954   0.15282   0.12510   1.000
    Zn1     Zn   0.32032   0.65289   0.62478   1.000
    Zn2     Zn   0.32032   0.65289   0.12477   1.000
    Zn3     Zn   0.82043   0.84718   0.87488   1.000
    Zn4     Zn   0.82043   0.84718   0.37488   1.000
    Zn5     Zn   0.67965   0.34711   0.87522   1.000
    Zn6     Zn   0.67965   0.34711   0.37521   1.000
    Zn7     Zn   0.17954   0.15282   0.62511   1.000
