# CIF file generated by openbabel 2.4.90, see http://openbabel.sf.net
data_I
_chemical_name_common ''
_cell_length_a 14.559
_cell_length_b 15.905
_cell_length_c 18.506
_cell_angle_alpha 89.983
_cell_angle_beta 86.855
_cell_angle_gamma 90.096
_space_group_name_H-M_alt 'P 1'
_space_group_name_Hall 'P 1'
loop_
    _symmetry_equiv_pos_as_xyz
    x,y,z
loop_
    _atom_site_label
    _atom_site_type_symbol
    _atom_site_fract_x
    _atom_site_fract_y
    _atom_site_fract_z
    _atom_site_occupancy
    N0      N    0.49999   0.50000   0.49999   1.000
    N1      N    0.00050   0.50001   0.75000   1.000
    N2      N    0.99999   0.00000   0.75082   1.000
    N3      N    0.49999   0.00000   0.00032   1.000
    N4      N    0.49999   0.00000   0.49999   1.000
    N5      N    0.99998   0.50000   0.99999   1.000
    N6      N    0.99998   0.50000   0.49999   1.000
    N7      N    0.00049   0.50000   0.24999   1.000
    N8      N    0.49998   0.00000   0.24999   1.000
    N9      N    0.49998   0.00000   0.75000   1.000
    N10     N    0.49998   0.50000   0.99999   1.000
    N11     N    0.99998   1.00000   0.24999   1.000
    Zr12    Zr   0.67965   0.34711   0.37521   1.000
    O13     O    0.62453   0.38546   0.27136   1.000
    O14     O    0.76678   0.39907   0.41011   1.000
    O15     O    0.77259   0.25039   0.34080   1.000
    O16     O    0.62509   0.25125   0.41568   1.000
    Zr17    Zr   0.32032   0.65289   0.12477   1.000
    O18     O    0.37544   0.61454   0.22862   1.000
    O19     O    0.23319   0.60093   0.08987   1.000
    O20     O    0.22738   0.74960   0.15917   1.000
    O21     O    0.37488   0.74875   0.08438   1.000
    Zr22    Zr   0.82043   0.84718   0.87488   1.000
    O23     O    0.72739   0.75048   0.90923   1.000
    O24     O    0.87552   0.88544   0.97871   1.000
    O25     O    0.73330   0.89912   0.83998   1.000
    O26     O    0.87507   0.75132   0.83440   1.000
    Zr27    Zr   0.82043   0.84718   0.37488   1.000
    O28     O    0.87507   0.75132   0.33439   1.000
    O29     O    0.73330   0.89912   0.33997   1.000
    O30     O    0.87552   0.88544   0.47892   1.000
    O31     O    0.72739   0.75048   0.40923   1.000
    Zr32    Zr   0.67965   0.34711   0.87522   1.000
    O33     O    0.76678   0.39906   0.91011   1.000
    O34     O    0.77259   0.25040   0.84102   1.000
    O35     O    0.62509   0.25125   0.91577   1.000
    O36     O    0.62453   0.38546   0.77137   1.000
    Zr37    Zr   0.17954   0.15282   0.62511   1.000
    O38     O    0.12445   0.11456   0.52128   1.000
    O39     O    0.26666   0.10088   0.66001   1.000
    O40     O    0.12515   0.24868   0.66559   1.000
    O41     O    0.27257   0.24952   0.59076   1.000
    Zr42    Zr   0.17954   0.15282   0.12510   1.000
    O43     O    0.12515   0.24868   0.16559   1.000
    O44     O    0.26666   0.10087   0.16000   1.000
    O45     O    0.12445   0.11456   0.02148   1.000
    O46     O    0.27257   0.24952   0.09076   1.000
    Zr47    Zr   0.32032   0.65289   0.62478   1.000
    O48     O    0.37544   0.61454   0.72863   1.000
    O49     O    0.23319   0.60093   0.58988   1.000
    O50     O    0.22738   0.74960   0.65939   1.000
    O51     O    0.37488   0.74875   0.58430   1.000
loop_
    _geom_bond_atom_site_label_1
    _geom_bond_atom_site_label_2
    _geom_bond_distance
    _geom_bond_site_symmetry_2
    _ccdc_geom_bond_type
    Zr12   O13       2.20894      .   S
    N10    O13       5.72988  1_556   S
    Zr12   O14       1.67210      .   S
    N6     O14       4.18023      .   S
    Zr12   O15       2.12493      .   S
    N11    O15       5.39288  1_565   S
    Zr12   O16       1.85648      .   S
    N4     O16       4.62395      .   S
    Zr17   O18       2.20896      .   S
    N0     O18       5.72996      .   S
    Zr17   O19       1.67211      .   S
    N5     O19       4.18024  1_656   S
    Zr17   O20       2.12494      .   S
    N11    O20       5.39290  1_655   S
    Zr17   O21       1.85593      .   S
    N3     O21       4.62256  1_545   S
    Zr22   O23       2.12185      .   S
    N10    O23       5.38476      .   S
    Zr22   O24       2.20770      .   S
    N11    O24       5.72701  1_554   S
    Zr22   O25       1.67386      .   S
    N9     O25       4.18612  1_545   S
    Zr22   O26       1.85957      .   S
    N1     O26       4.63325  1_455   S
    Zr27   O28       1.85957      .   S
    N7     O28       4.63326  1_455   S
    Zr27   O29       1.67387      .   S
    N8     O29       4.18614  1_545   S
    Zr27   O30       2.21117      .   S
    N2     O30       5.73746  1_545   S
    Zr27   O31       2.12185      .   S
    N0     O31       5.38478      .   S
    Zr32   O33       1.67209      .   S
    N5     O33       4.18018      .   S
    Zr32   O34       2.12392      .   S
    N2     O34       5.38970      .   S
    Zr32   O35       1.85702      .   S
    N3     O35       4.62530  1_554   S
    Zr32   O36       2.20898      .   S
    N0     O36       5.72999      .   S
    Zr37   O38       2.20778      .   S
    N11    O38       5.72724  1_665   S
    Zr37   O39       1.67382      .   S
    N9     O39       4.18606      .   S
    Zr37   O40       1.85811      .   S
    N1     O40       4.62916      .   S
    Zr37   O41       2.12186      .   S
    N0     O41       5.38481      .   S
    Zr42   O43       1.85810      .   S
    N7     O43       4.62915      .   S
    Zr42   O44       1.67381      .   S
    N8     O44       4.18605      .   S
    Zr42   O45       2.20432      .   S
    N2     O45       5.71679  1_656   S
    Zr42   O46       2.12186      .   S
    N10    O46       5.38479  1_556   S
    Zr47   O48       2.20892      .   S
    N10    O48       5.72984      .   S
    Zr47   O49       1.67212      .   S
    N6     O49       4.18029  1_655   S
    Zr47   O50       2.12595      .   S
    N2     O50       5.39610  1_645   S
    Zr47   O51       1.85651      .   S
    N4     O51       4.62400  1_545   S
