# CIF file generated by openbabel 2.4.90, see http://openbabel.sf.net
data_I
_chemical_name_common ''
_cell_length_a 13.07
_cell_length_b 24.209
_cell_length_c 15.042
_cell_angle_alpha 90.033
_cell_angle_beta 90.136
_cell_angle_gamma 90.336
_space_group_name_H-M_alt 'P 1'
_space_group_name_Hall 'P 1'
loop_
    _symmetry_equiv_pos_as_xyz
    x,y,z
loop_
    _atom_site_label
    _atom_site_type_symbol
    _atom_site_fract_x
    _atom_site_fract_y
    _atom_site_fract_z
    _atom_site_occupancy
    H0      H    0.91407   0.17290   0.73635   1.000
    H1      H    0.98691   0.00724   0.82058   1.000
    H2      H    0.08435   0.15252   0.96728   1.000
    H3      H    0.08692   0.33517   0.97643   1.000
    H4      H    0.99668   0.49460   0.87199   1.000
    H5      H    0.87999   0.34065   0.76704   1.000
    H6      H    0.08339   0.82757   0.23639   1.000
    H7      H    0.00859   0.99328   0.31884   1.000
    H8      H    0.91152   0.84824   0.46573   1.000
    H9      H    0.90989   0.66608   0.47525   1.000
    H10     H    0.99869   0.50613   0.37189   1.000
    H11     H    0.11692   0.65955   0.26696   1.000
    H12     H    0.58564   0.67368   0.74162   1.000
    H13     H    0.51132   0.50800   0.82640   1.000
    H14     H    0.41382   0.65323   0.97120   1.000
    H15     H    0.41216   0.83641   0.97680   1.000
    H16     H    0.50130   0.99532   0.86770   1.000
    H17     H    0.61869   0.84107   0.76787   1.000
    H18     H    0.41462   0.32771   0.23940   1.000
    H19     H    0.48236   0.49355   0.32810   1.000
    H20     H    0.58361   0.34839   0.47130   1.000
    H21     H    0.58856   0.16469   0.47569   1.000
    H22     H    0.49577   0.00000   0.36809   1.000
    H23     H    0.38223   0.16034   0.26568   1.000
    C24     C    0.94741   0.14392   0.78318   1.000
    C25     C    0.94255   0.08707   0.76930   1.000
    C26     C    0.98945   0.05182   0.82966   1.000
    C27     C    0.04426   0.07526   0.90051   1.000
    C28     C    0.04517   0.13263   0.91185   1.000
    C29     C    0.89457   0.06750   0.68505   1.000
    C30     C    0.10406   0.03866   0.96090   1.000
    C31     C    0.04320   0.36091   0.93126   1.000
    C32     C    0.05136   0.41854   0.93249   1.000
    C33     C    0.99179   0.44965   0.87389   1.000
    C34     C    0.92838   0.42144   0.81370   1.000
    C35     C    0.92545   0.36380   0.81492   1.000
    C36     C    0.13484   0.44201   0.98905   1.000
    C37     C    0.86911   0.45141   0.74320   1.000
    C38     C    0.04938   0.85660   0.28269   1.000
    C39     C    0.05390   0.91341   0.26852   1.000
    C40     C    0.00626   0.94873   0.32810   1.000
    C41     C    0.95128   0.92539   0.39878   1.000
    C42     C    0.95073   0.86806   0.41045   1.000
    C43     C    0.10287   0.93277   0.18485   1.000
    C44     C    0.89174   0.96223   0.45891   1.000
    C45     C    0.95347   0.64008   0.43050   1.000
    C46     C    0.94475   0.58248   0.43203   1.000
    C47     C    0.00000   0.55107   0.37375   1.000
    C48     C    0.06771   0.57898   0.31363   1.000
    C49     C    0.07125   0.63662   0.31471   1.000
    C50     C    0.86066   0.55973   0.48851   1.000
    C51     C    0.12646   0.54869   0.24310   1.000
    C52     C    0.55176   0.64472   0.78838   1.000
    C53     C    0.55641   0.58788   0.77502   1.000
    C54     C    0.50896   0.55258   0.83518   1.000
    C55     C    0.45393   0.57595   0.90541   1.000
    C56     C    0.45317   0.63336   0.91631   1.000
    C57     C    0.60502   0.56822   0.69159   1.000
    C58     C    0.39395   0.53905   0.96554   1.000
    C59     C    0.45573   0.86200   0.93107   1.000
    C60     C    0.44722   0.91957   0.93050   1.000
    C61     C    0.50651   0.95044   0.87110   1.000
    C62     C    0.57000   0.92202   0.81188   1.000
    C63     C    0.57327   0.86444   0.81494   1.000
    C64     C    0.36334   0.94280   0.98622   1.000
    C65     C    0.62842   0.95159   0.74000   1.000
    C66     C    0.44699   0.35674   0.28707   1.000
    C67     C    0.44055   0.41362   0.27468   1.000
    C68     C    0.48618   0.44894   0.33610   1.000
    C69     C    0.54143   0.42565   0.40650   1.000
    C70     C    0.54401   0.36821   0.41632   1.000
    C71     C    0.39228   0.43345   0.19094   1.000
    C72     C    0.60021   0.46273   0.46766   1.000
    C73     C    0.54458   0.13920   0.42989   1.000
    C74     C    0.55177   0.08156   0.43001   1.000
    C75     C    0.49174   0.05077   0.37068   1.000
    C76     C    0.42901   0.07928   0.31082   1.000
    C77     C    0.42712   0.13691   0.31319   1.000
    C78     C    0.63431   0.05770   0.48668   1.000
    C79     C    0.36932   0.04975   0.23952   1.000
    N80     N    0.99565   0.16631   0.85424   1.000
    N81     N    0.98170   0.33413   0.87350   1.000
    N82     N    0.00000   0.83433   0.35330   1.000
    N83     N    0.00000   0.66655   0.37294   1.000
    N84     N    0.50306   0.66708   0.85876   1.000
    N85     N    0.51726   0.83506   0.87429   1.000
    N86     N    0.49563   0.33438   0.35767   1.000
    N87     N    0.48359   0.16626   0.37250   1.000
    O88     O    0.90651   0.10137   0.61960   1.000
    O89     O    0.84943   0.02122   0.67985   1.000
    O90     O    0.09271   0.98642   0.94526   1.000
    O91     O    0.16069   0.05969   0.02010   1.000
    O92     O    0.20745   0.40718   0.00390   1.000
    O93     O    0.13425   0.49140   0.00000   1.000
    O94     O    0.87580   0.50274   0.73449   1.000
    O95     O    0.81287   0.42092   0.69090   1.000
    O96     O    0.09345   0.89840   0.11972   1.000
    O97     O    0.14663   0.97944   0.17980   1.000
    O98     O    0.90253   0.01438   0.44199   1.000
    O99     O    0.83621   0.94174   0.51912   1.000
    O100    O    0.78737   0.59468   0.49978   1.000
    O101    O    0.86160   0.51114   0.51923   1.000
    O102    O    0.11933   0.49748   0.23439   1.000
    O103    O    0.18255   0.57930   0.19095   1.000
    O104    O    0.59549   0.60216   0.62608   1.000
    O105    O    0.64832   0.52169   0.68760   1.000
    O106    O    0.40485   0.48690   0.94944   1.000
    O107    O    0.33774   0.55968   0.02480   1.000
    O108    O    0.29022   0.90767   0.99985   1.000
    O109    O    0.36417   0.99208   0.00000   1.000
    O110    O    0.62180   0.00273   0.73017   1.000
    O111    O    0.68341   0.92070   0.68796   1.000
    O112    O    0.40438   0.40021   0.12476   1.000
    O113    O    0.34682   0.47937   0.18722   1.000
    O114    O    0.58659   0.51484   0.45288   1.000
    O115    O    0.65807   0.44239   0.52619   1.000
    O116    O    0.70719   0.09241   0.50380   1.000
    O117    O    0.63255   0.00000   0.51239   1.000
    O118    O    0.37393   0.99841   0.23040   1.000
    O119    O    0.31509   0.08075   0.18696   1.000
loop_
    _geom_bond_atom_site_label_1
    _geom_bond_atom_site_label_2
    _geom_bond_distance
    _geom_bond_site_symmetry_2
    _ccdc_geom_bond_type
    O93    C36       1.20698  1_554   S
    O109   C64       1.21092  1_554   S
    O92    C36       1.29238  1_554   S
    O91    C30       1.26166  1_554   S
    O107   C58       1.26115  1_554   S
    O96    C43       1.29018      .   S
    O112   C71       1.29033      .   S
    O97    C43       1.26573      .   S
    C43    C39       1.48806      .   S
    O119   C79       1.30186      .   S
    O113   C71       1.26483      .   S
    C71    C67       1.48843      .   S
    O103   C51       1.30348      .   S
    O118   C79       1.25225  1_565   S
    O102   C51       1.24948      .   S
    H6     C38       1.08675      .   S
    H18    C66       1.08685      .   S
    C79    C76       1.50284      .   S
    C51    C48       1.50408      .   S
    H23    C77       1.08593      .   S
    H11    C49       1.08587      .   S
    C39    C38       1.39272      .   S
    C39    C40       1.38928      .   S
    C67    C66       1.39285      .   S
    C67    C68       1.38955      .   S
    C38    N82       1.35473      .   S
    C66    N86       1.35138      .   S
    C76    C77       1.39594      .   S
    C76    C75       1.40104      .   S
    C77    N87       1.35477      .   S
    C48    C49       1.39591      .   S
    C48    C47       1.43348      .   S
    C49    N83       1.47330      .   S
    H7     C40       1.08785      .   S
    C40    C41       1.40188  1_455   S
    H19    C68       1.08804      .   S
    C68    C69       1.40091      .   S
    N82    C42       1.35226  1_455   S
    N86    C70       1.35623      .   S
    H22    C75       1.23120      .   S
    C75    C74       1.39882      .   S
    H10    C47       1.08833  1_655   S
    N87    C73       1.34654      .   S
    N83    C45       1.23641  1_455   S
    C47    C46       1.36996  1_455   S
    C41    C42       1.39918      .   S
    C41    C44       1.49320      .   S
    C69    C70       1.39904      .   S
    C69    C72       1.49325      .   S
    C42    H8        1.08798      .   S
    C70    H20       1.08798      .   S
    C73    C74       1.39897      .   S
    C73    H21       1.08604      .   S
    C74    C78       1.49245      .   S
    C45    C46       1.39869      .   S
    C45    H9        1.08594      .   S
    C46    C50       1.49371      .   S
    O98    C44       1.29486  1_545   S
    O114   C72       1.29441      .   S
    C44    O99       1.26194      .   S
    C72    O115      1.26147      .   S
    C78    O116      1.29187      .   S
    C78    O117      1.44980      .   S
    C50    O100      1.29319      .   S
    C50    O101      1.26407      .   S
    O88    C29       1.29085      .   S
    O104   C57       1.28970      .   S
    O89    C29       1.26536      .   S
    C29    C25       1.48854      .   S
    O105   C57       1.26503      .   S
    O111   C65       1.30255      .   S
    O95    C37       1.30160      .   S
    C57    C53       1.48715      .   S
    O110   C65       1.25048  1_545   S
    O94    C37       1.25218      .   S
    H0     C24       1.08685      .   S
    C65    C62       1.50428      .   S
    H12    C52       1.08672      .   S
    C37    C34       1.50163      .   S
    H5     C35       1.08598      .   S
    H17    C63       1.08595      .   S
    C25    C24       1.39297      .   S
    C25    C26       1.39017      .   S
    C53    C52       1.39227      .   S
    C53    C54       1.38960      .   S
    C24    N80       1.35130      .   S
    C52    N84       1.35113      .   S
    C62    C63       1.39552      .   S
    C62    C61       1.40182      .   S
    C34    C35       1.39582      .   S
    C34    C33       1.40078      .   S
    C35    N81       1.35522      .   S
    C63    N85       1.35521      .   S
    H1     C26       1.08805      .   S
    H13    C54       1.08796      .   S
    C26    C27       1.40070  1_655   S
    C54    C55       1.40043      .   S
    N80    C28       1.35599  1_655   S
    N84    C56       1.35585      .   S
    H16    C61       1.09014      .   S
    C61    C60       1.39811      .   S
    H4     C33       1.09002      .   S
    N81    C31       1.34571  1_655   S
    C33    C32       1.39813  1_655   S
    N85    C59       1.34549      .   S
    C27    C28       1.39916      .   S
    C27    C30       1.49228      .   S
    C55    C56       1.39931      .   S
    C55    C58       1.49229      .   S
    C28    H2        1.08801      .   S
    C56    H14       1.08730      .   S
    C60    C59       1.39894      .   S
    C60    C64       1.49386      .   S
    C59    H15       1.08601      .   S
    C31    C32       1.39887      .   S
    C31    H3        1.08593      .   S
    C32    C36       1.49161      .   S
    O90    C30       1.29395  1_565   S
    O106   C58       1.29411      .   S
    C64    O108      1.29237      .   S
