# CIF file generated by openbabel 2.4.90, see http://openbabel.sf.net
data_I
_chemical_name_common ''
_cell_length_a 13.07
_cell_length_b 24.209
_cell_length_c 15.042
_cell_angle_alpha 90.033
_cell_angle_beta 90.136
_cell_angle_gamma 90.336
_space_group_name_H-M_alt 'P 1'
_space_group_name_Hall 'P 1'
loop_
    _symmetry_equiv_pos_as_xyz
    x,y,z
loop_
    _atom_site_label
    _atom_site_type_symbol
    _atom_site_fract_x
    _atom_site_fract_y
    _atom_site_fract_z
    _atom_site_occupancy
    Zn0     Zn   0.73341   0.97712   0.60571   1.000
    Zn1     Zn   0.15515   0.93282   0.00000   1.000
    Zn2     Zn   0.26254   0.02330   0.10661   1.000
    Zn3     Zn   0.65319   0.56917   0.52327   1.000
    Zn4     Zn   0.76059   0.47921   0.61290   1.000
    Zn5     Zn   0.34262   0.43296   0.00000   1.000
    Zn6     Zn   0.23507   0.52302   0.11035   1.000
    Pt7     Pt   0.98984   0.25028   0.86598   1.000
    Zn8     Zn   0.84373   0.06736   0.51905   1.000
    Pt9     Pt   0.00000   0.75039   0.36525   1.000
    Pt10    Pt   0.50892   0.75113   0.86884   1.000
    Pt11    Pt   0.49134   0.25023   0.36724   1.000
