# CIF file generated by openbabel 2.4.90, see http://openbabel.sf.net
data_I
_chemical_name_common ''
_cell_length_a 13.07
_cell_length_b 24.209
_cell_length_c 15.042
_cell_angle_alpha 90.033
_cell_angle_beta 90.136
_cell_angle_gamma 90.336
_space_group_name_H-M_alt 'P 1'
_space_group_name_Hall 'P 1'
loop_
    _symmetry_equiv_pos_as_xyz
    x,y,z
loop_
    _atom_site_label
    _atom_site_type_symbol
    _atom_site_fract_x
    _atom_site_fract_y
    _atom_site_fract_z
    _atom_site_occupancy
    Zr0     Zr   0.84373   0.06736   0.51905   1.000
    Zr1     Zr   0.73341   0.97712   0.60571   1.000
    Zr2     Zr   0.15515   0.93282   0.00000   1.000
    Zr3     Zr   0.26254   0.02330   0.10661   1.000
    Zr4     Zr   0.65319   0.56917   0.52327   1.000
    Zr5     Zr   0.76059   0.47921   0.61290   1.000
    Zr6     Zr   0.34262   0.43296   0.00000   1.000
    Zr7     Zr   0.23507   0.52302   0.11035   1.000
    Zr8     Zr   0.98984   0.25028   0.86598   1.000
    Zr9     Zr   0.00000   0.75039   0.36525   1.000
    Zr10    Zr   0.50892   0.75113   0.86884   1.000
    Zr11    Zr   0.49134   0.25023   0.36724   1.000
    N12     N    0.99719   0.08430   0.83225   1.000
    O13     O    0.99497   0.14630   0.84618   1.000
    O14     O    0.93615   0.08433   0.70079   1.000
    O15     O    0.10440   0.06290   0.94780   1.000
    O16     O    0.89430   0.04174   0.73751   1.000
    O17     O    0.06056   0.02196   0.90244   1.000
    N18     N    0.99465   0.41564   0.86778   1.000
    O19     O    0.08966   0.46142   0.96148   1.000
    O20     O    0.13484   0.41785   0.93487   1.000
    O21     O    0.99021   0.35392   0.86876   1.000
    O22     O    0.89069   0.43285   0.75984   1.000
    N23     N    0.50357   0.91626   0.86602   1.000
    O24     O    0.36313   0.91825   0.93297   1.000
    O25     O    0.50833   0.85468   0.86879   1.000
    O26     O    0.60599   0.93258   0.75643   1.000
    O27     O    0.40846   0.96198   0.95966   1.000
    N28     N    0.49512   0.08387   0.36642   1.000
    O29     O    0.58905   0.03621   0.46274   1.000
    O30     O    0.63529   0.08188   0.43892   1.000
    O31     O    0.39197   0.06795   0.25660   1.000
    O32     O    0.49129   0.14606   0.36815   1.000
    N33     N    0.00004   0.58524   0.36851   1.000
    O34     O    0.86016   0.58358   0.44002   1.000
    O35     O    0.00002   0.64686   0.36880   1.000
    O36     O    0.90557   0.54021   0.46729   1.000
    O37     O    0.10443   0.56820   0.25958   1.000
    N38     N    0.50156   0.58494   0.83756   1.000
    O39     O    0.56295   0.58531   0.70612   1.000
    O40     O    0.43765   0.52244   0.90614   1.000
    O41     O    0.60301   0.54270   0.74390   1.000
    O42     O    0.50378   0.64702   0.85068   1.000
    O43     O    0.39399   0.56315   0.95257   1.000
    N44     N    0.49492   0.41668   0.33779   1.000
    O45     O    0.43421   0.41663   0.20008   1.000
    O46     O    0.60212   0.43874   0.45367   1.000
    O47     O    0.49420   0.35449   0.35012   1.000
    O48     O    0.55740   0.47934   0.41293   1.000
    O49     O    0.39293   0.45894   0.24329   1.000
    N50     N    0.99923   0.91630   0.33115   1.000
    O51     O    0.93618   0.97859   0.40583   1.000
    O52     O    0.06177   0.91596   0.19550   1.000
    O53     O    0.10191   0.95884   0.23718   1.000
    O54     O    0.89202   0.93787   0.44678   1.000
    O55     O    0.99962   0.85433   0.34521   1.000
    N56     N    0.97544   0.24227   0.02047   1.000
    O57     O    0.97904   0.24427   0.98185   1.000
    N58     N    0.51391   0.24215   0.21280   1.000
    O59     O    0.50827   0.24417   0.25141   1.000
    N60     N    0.02063   0.75871   0.51986   1.000
    O61     O    0.01547   0.75663   0.48121   1.000
    N62     N    0.01133   0.26003   0.71172   1.000
    O63     O    0.00596   0.25760   0.75029   1.000
    N64     N    0.47602   0.25666   0.52186   1.000
    O65     O    0.47985   0.25505   0.48321   1.000
    N66     N    0.98656   0.74048   0.21080   1.000
    O67     O    0.98992   0.74295   0.24941   1.000
    N68     N    0.48698   0.75937   0.71427   1.000
    O69     O    0.49246   0.75731   0.75291   1.000
    N70     N    0.52341   0.74444   0.02349   1.000
    O71     O    0.51979   0.74612   0.98483   1.000
loop_
    _geom_bond_atom_site_label_1
    _geom_bond_atom_site_label_2
    _geom_bond_distance
    _geom_bond_site_symmetry_2
    _ccdc_geom_bond_type
    N12    O13       1.51577      .   S
    Zr8    O13       2.53608      .   S
    N12    O14       2.13052      .   S
    Zr0    O14       3.01304      .   S
    N12    O15       2.29156  1_655   S
    Zr3    O15       3.30146  1_554   S
    N12    O16       2.20763      .   S
    Zr1    O16       3.27690  1_565   S
    N12    O17       2.02258  1_655   S
    Zr2    O17       2.89230  1_564   S
    N18    O19       2.17501  1_655   S
    Zr7    O19       3.28527  1_554   S
    N18    O20       2.09007  1_655   S
    Zr6    O20       2.90581  1_554   S
    N18    O21       1.49490      .   S
    Zr8    O21       2.50927      .   S
    N18    O22       2.15713      .   S
    Zr5    O22       3.00731      .   S
    N23    O24       2.09655      .   S
    Zr2    O24       2.92462  1_554   S
    N23    O25       1.49313      .   S
    Zr10   O25       2.50684      .   S
    N23    O26       2.16120      .   S
    Zr1    O26       3.01252      .   S
    N23    O27       2.18557      .   S
    Zr3    O27       3.28281  1_544   S
    N28    O29       2.22424      .   S
    Zr1    O29       3.20126  1_565   S
    N28    O30       2.13065      .   S
    Zr0    O30       2.99902      .   S
    N28    O31       2.16274      .   S
    Zr3    O31       3.01292      .   S
    N28    O32       1.50681      .   S
    Zr11   O32       2.52199      .   S
    N33    O34       2.12358  1_455   S
    Zr4    O34       3.00216      .   S
    N33    O35       1.49170      .   S
    Zr9    O35       2.50715      .   S
    N33    O36       2.21713  1_455   S
    Zr5    O36       3.24953      .   S
    N33    O37       2.17546      .   S
    Zr7    O37       3.03116      .   S
    N38    O39       2.13550      .   S
    Zr4    O39       3.02119      .   S
    N38    O40       2.01073      .   S
    Zr6    O40       2.86507  1_554   S
    N38    O41       2.19356      .   S
    Zr5    O41       3.24653      .   S
    N38    O42       1.51578      .   S
    Zr10   O42       2.53533      .   S
    N38    O43       2.29175      .   S
    Zr7    O43       3.30045  1_554   S
    N44    O45       2.21633      .   S
    Zr6    O45       3.26144      .   S
    N44    O46       2.29462      .   S
    Zr5    O46       3.30702      .   S
    N44    O47       1.51694      .   S
    Zr11   O47       2.53739      .   S
    N44    O48       2.05554      .   S
    Zr4    O48       3.00089      .   S
    N44    O49       2.20287      .   S
    Zr7    O49       3.26860      .   S
    N50    O51       2.05709      .   S
    Zr0    O51       3.00248  1_545   S
    N50    O52       2.19978  1_655   S
    Zr2    O52       3.21203      .   S
    N50    O53       2.20311  1_655   S
    Zr3    O53       3.26880  1_545   S
    N50    O54       2.29793      .   S
    Zr1    O54       3.31051      .   S
    N50    O55       1.51530      .   S
    Zr9    O55       2.53445  1_455   S
    N56    O57       0.58499  1_554   S
    Zr8    O57       1.75498      .   S
    N58    O59       0.58766      .   S
    Zr11   O59       1.76297      .   S
    N60    O61       0.58724      .   S
    Zr9    O61       1.76173      .   S
    N62    O63       0.58746      .   S
    Zr8    O63       1.76238  1_655   S
    N64    O65       0.58501      .   S
    Zr11   O65       1.75503      .   S
    N66    O67       0.58539      .   S
    Zr9    O67       1.75616  1_455   S
    N68    O69       0.58768      .   S
    Zr10   O69       1.76305      .   S
    N70    O71       0.58482  1_554   S
    Zr10   O71       1.75446      .   S
