# CIF file generated by openbabel 2.4.90, see http://openbabel.sf.net
data_I
_chemical_name_common ''
_cell_length_a 19.314
_cell_length_b 21.4
_cell_length_c 26.004
_cell_angle_alpha 57.185
_cell_angle_beta 75.071
_cell_angle_gamma 69.375
_space_group_name_H-M_alt 'P 1'
_space_group_name_Hall 'P 1'
loop_
    _symmetry_equiv_pos_as_xyz
    x,y,z
loop_
    _atom_site_label
    _atom_site_type_symbol
    _atom_site_fract_x
    _atom_site_fract_y
    _atom_site_fract_z
    _atom_site_occupancy
    Lv0     Lv   0.37186   0.27371   0.69484   1.000
    Lv1     Lv   0.12818   0.72637   0.80510   1.000
    Lv2     Lv   0.87193   0.77375   0.69487   1.000
    Lv3     Lv   0.37196   0.77370   0.19487   1.000
    Lv4     Lv   0.75007   0.25009   0.99995   1.000
    Lv5     Lv   0.87197   0.77370   0.19486   1.000
    Lv6     Lv   0.62822   0.72636   0.30509   1.000
    Lv7     Lv   0.87187   0.27371   0.69483   1.000
    Lv8     Lv   0.25003   0.75002   0.49995   1.000
    Lv9     Lv   0.12816   0.22632   0.30510   1.000
    Lv10    Lv   0.62819   0.72637   0.80510   1.000
    Lv11    Lv   0.62813   0.22636   0.80510   1.000
    Lv12    Lv   0.12812   0.22636   0.80511   1.000
    Lv13    Lv   0.37192   0.77374   0.69488   1.000
    Lv14    Lv   0.25002   0.74999   0.00001   1.000
    Lv15    Lv   0.75005   0.25005   0.50002   1.000
    Lv16    Lv   0.75004   0.75003   0.49995   1.000
    Lv17    Lv   0.37190   0.27370   0.19486   1.000
    Lv18    Lv   0.25005   0.25005   0.49996   1.000
    Lv19    Lv   0.75003   0.74999   0.00001   1.000
    Lv20    Lv   0.87191   0.27370   0.19470   1.000
    Lv21    Lv   0.62817   0.22632   0.30510   1.000
    Lv22    Lv   0.25006   0.25008   0.99992   1.000
    Lv23    Lv   0.12822   0.72636   0.30509   1.000
