# CIF file generated by openbabel 2.4.90, see http://openbabel.sf.net
data_I
_chemical_name_common ''
_cell_length_a 19.314
_cell_length_b 21.4
_cell_length_c 26.004
_cell_angle_alpha 57.185
_cell_angle_beta 75.071
_cell_angle_gamma 69.375
_space_group_name_H-M_alt 'P 1'
_space_group_name_Hall 'P 1'
loop_
    _symmetry_equiv_pos_as_xyz
    x,y,z
loop_
    _atom_site_label
    _atom_site_type_symbol
    _atom_site_fract_x
    _atom_site_fract_y
    _atom_site_fract_z
    _atom_site_occupancy
    La0     La   0.14562   0.00262   0.74683   1.000
    La1     La   0.14565   0.50257   0.24686   1.000
    La2     La   0.14563   0.50263   0.74681   1.000
    La3     La   0.64567   0.00264   0.24675   1.000
    La4     La   0.64562   0.00263   0.74680   1.000
    La5     La   0.64566   0.50257   0.24685   1.000
    La6     La   0.64563   0.50264   0.74681   1.000
    La7     La   0.35446   0.49743   0.25317   1.000
    La8     La   0.35444   0.49750   0.75312   1.000
    La9     La   0.35447   0.99744   0.25314   1.000
    La10    La   0.35441   0.99743   0.75321   1.000
    La11    La   0.85446   0.49744   0.25316   1.000
    La12    La   0.85444   0.49750   0.75312   1.000
    La13    La   0.85447   0.99745   0.25314   1.000
    La14    La   0.85442   0.99744   0.75321   1.000
    H15     H    0.23930   0.31524   0.17550   1.000
    H16     H    0.23927   0.31526   0.67555   1.000
    H17     H    0.23938   0.81528   0.17549   1.000
    H18     H    0.23934   0.81531   0.67551   1.000
    H19     H    0.73931   0.31525   0.17554   1.000
    H20     H    0.73928   0.31526   0.67555   1.000
    H21     H    0.73939   0.81528   0.17549   1.000
    H22     H    0.73934   0.81532   0.67551   1.000
    H23     H    0.32259   0.19396   0.17797   1.000
    H24     H    0.32255   0.19396   0.67801   1.000
    H25     H    0.32265   0.69395   0.17799   1.000
    H26     H    0.32262   0.69401   0.67797   1.000
    H27     H    0.82260   0.19397   0.17790   1.000
    H28     H    0.82256   0.19396   0.67801   1.000
    H29     H    0.82266   0.69395   0.17799   1.000
    H30     H    0.82263   0.69401   0.67797   1.000
    H31     H    0.00484   0.23368   0.21196   1.000
    La32    La   0.14567   0.00264   0.24676   1.000
    H33     H    0.00480   0.23369   0.71198   1.000
    H34     H    0.00489   0.73365   0.21201   1.000
    H35     H    0.00485   0.73370   0.71201   1.000
    H36     H    0.50483   0.23368   0.21196   1.000
    H37     H    0.50480   0.23369   0.71190   1.000
    H38     H    0.50488   0.73365   0.21201   1.000
    H39     H    0.50484   0.73370   0.71201   1.000
    H40     H    0.42170   0.35345   0.21141   1.000
    H41     H    0.42167   0.35349   0.71100   1.000
    H42     H    0.42176   0.85348   0.21139   1.000
    H43     H    0.42171   0.85350   0.71143   1.000
    H44     H    0.92171   0.35346   0.21141   1.000
    H45     H    0.92168   0.35349   0.71139   1.000
    H46     H    0.92177   0.85348   0.21130   1.000
    H47     H    0.92172   0.85350   0.71142   1.000
    H48     H    0.35839   0.30634   0.45243   1.000
    H49     H    0.35838   0.30641   0.95236   1.000
    H50     H    0.35837   0.80632   0.45235   1.000
    H51     H    0.35834   0.80632   0.95241   1.000
    H52     H    0.85839   0.30635   0.45240   1.000
    H53     H    0.85839   0.30641   0.95236   1.000
    H54     H    0.85838   0.80632   0.45235   1.000
    H55     H    0.85835   0.80632   0.95240   1.000
    H56     H    0.14257   0.30370   0.43900   1.000
    H57     H    0.14257   0.30373   0.93896   1.000
    H58     H    0.14255   0.80367   0.43894   1.000
    H59     H    0.14252   0.80364   0.93902   1.000
    H60     H    0.64258   0.30370   0.43900   1.000
    H61     H    0.64258   0.30373   0.93896   1.000
    H62     H    0.64256   0.80368   0.43894   1.000
    H63     H    0.64253   0.80364   0.93902   1.000
    H64     H    0.26075   0.18475   0.32446   1.000
    H65     H    0.26070   0.18478   0.82448   1.000
    H66     H    0.26081   0.68481   0.32443   1.000
    H67     H    0.26078   0.68483   0.82443   1.000
    H68     H    0.76075   0.18475   0.32446   1.000
    H69     H    0.76071   0.18479   0.82448   1.000
    H70     H    0.76081   0.68481   0.32442   1.000
    H71     H    0.76078   0.68483   0.82443   1.000
    H72     H    0.17747   0.30605   0.32200   1.000
    H73     H    0.17743   0.30611   0.82199   1.000
    H74     H    0.17753   0.80611   0.32196   1.000
    H75     H    0.17748   0.80611   0.82201   1.000
    H76     H    0.67747   0.30605   0.32200   1.000
    H77     H    0.67744   0.30611   0.82198   1.000
    H78     H    0.67753   0.80612   0.32196   1.000
    H79     H    0.67749   0.80611   0.82200   1.000
    H80     H    0.49524   0.26636   0.28797   1.000
    H81     H    0.49520   0.26641   0.78790   1.000
    H82     H    0.49529   0.76638   0.28799   1.000
    H83     H    0.49526   0.76639   0.78801   1.000
    H84     H    0.99524   0.26636   0.28797   1.000
    H85     H    0.99520   0.26641   0.78798   1.000
    H86     H    0.99529   0.76638   0.28799   1.000
    H87     H    0.99525   0.76639   0.78801   1.000
    H88     H    0.07836   0.14656   0.28855   1.000
    H89     H    0.07831   0.14659   0.78859   1.000
    H90     H    0.07841   0.64658   0.28858   1.000
    H91     H    0.07838   0.64661   0.78857   1.000
    H92     H    0.57837   0.14657   0.28855   1.000
    H93     H    0.57832   0.14659   0.78859   1.000
    H94     H    0.57842   0.64658   0.28858   1.000
    H95     H    0.57839   0.64661   0.78857   1.000
    H96     H    0.14174   0.19375   0.04756   1.000
    H97     H    0.14171   0.19375   0.54761   1.000
    H98     H    0.14169   0.69366   0.04762   1.000
    H99     H    0.14169   0.69373   0.54756   1.000
    C100    C    0.81124   0.78120   0.97375   1.000
    C101    C    0.18931   0.27973   0.46615   1.000
    C102    C    0.18932   0.27977   0.96610   1.000
    C103    C    0.18930   0.77971   0.46609   1.000
    H104    H    0.64175   0.19375   0.04750   1.000
    H105    H    0.64172   0.19375   0.54761   1.000
    H106    H    0.64170   0.69367   0.04762   1.000
    H107    H    0.64170   0.69373   0.54755   1.000
    H108    H    0.35755   0.19643   0.06096   1.000
    H109    H    0.35752   0.19640   0.56104   1.000
    H110    H    0.35752   0.69634   0.06100   1.000
    H111    H    0.35752   0.69637   0.56097   1.000
    H112    H    0.85756   0.19644   0.06096   1.000
    H113    H    0.85753   0.19640   0.56104   1.000
    H114    H    0.85753   0.69634   0.06100   1.000
    H115    H    0.85752   0.69638   0.56096   1.000
    C116    C    0.27189   0.40473   0.20411   1.000
    C117    C    0.27187   0.40478   0.70408   1.000
    C118    C    0.27198   0.90480   0.20400   1.000
    C119    C    0.27193   0.90481   0.70407   1.000
    C120    C    0.77190   0.40473   0.20411   1.000
    C121    C    0.77187   0.40478   0.70408   1.000
    C122    C    0.77199   0.90480   0.20401   1.000
    C123    C    0.77194   0.90481   0.70407   1.000
    C124    C    0.32463   0.34036   0.19540   1.000
    C125    C    0.32460   0.34039   0.69539   1.000
    C126    C    0.32471   0.84039   0.19535   1.000
    C127    C    0.32466   0.84041   0.69538   1.000
    C128    C    0.82464   0.34036   0.19539   1.000
    C129    C    0.82461   0.34039   0.69539   1.000
    C130    C    0.82471   0.84039   0.19534   1.000
    C131    C    0.82466   0.84042   0.69538   1.000
    C132    C    0.09995   0.18129   0.29617   1.000
    C133    C    0.09990   0.18132   0.79620   1.000
    C134    C    0.10000   0.68131   0.29618   1.000
    C135    C    0.09997   0.68133   0.79618   1.000
    C136    C    0.59995   0.18129   0.29617   1.000
    C137    C    0.29757   0.29675   0.18362   1.000
    C138    C    0.29754   0.29676   0.68363   1.000
    C139    C    0.29764   0.79677   0.18359   1.000
    C140    C    0.29760   0.79681   0.68360   1.000
    C141    C    0.79758   0.29675   0.18360   1.000
    C142    C    0.79755   0.29677   0.68363   1.000
    C143    C    0.79765   0.79677   0.18358   1.000
    C144    C    0.79761   0.79681   0.68360   1.000
    C145    C    0.34386   0.22899   0.18540   1.000
    C146    C    0.34382   0.22900   0.68550   1.000
    C147    C    0.34392   0.72899   0.18547   1.000
    C148    C    0.34388   0.72904   0.68547   1.000
    C149    C    0.84386   0.22900   0.18546   1.000
    C150    C    0.84382   0.22900   0.68500   1.000
    C151    C    0.84392   0.72899   0.18547   1.000
    C152    C    0.84389   0.72904   0.68540   1.000
    C153    C    0.41795   0.20420   0.19876   1.000
    C154    C    0.41792   0.20420   0.69879   1.000
    C155    C    0.41800   0.70418   0.19879   1.000
    C156    C    0.41797   0.70423   0.69878   1.000
    C157    C    0.91796   0.20420   0.19875   1.000
    C158    C    0.91792   0.20420   0.69879   1.000
    C159    C    0.91801   0.70418   0.19879   1.000
    C160    C    0.91797   0.70424   0.69878   1.000
    C161    C    0.44643   0.25160   0.20480   1.000
    C162    C    0.44639   0.25162   0.70482   1.000
    C163    C    0.44648   0.75159   0.20482   1.000
    C164    C    0.44644   0.75164   0.70483   1.000
    C165    C    0.94644   0.25161   0.20400   1.000
    C166    C    0.94640   0.25162   0.70482   1.000
    C167    C    0.94649   0.75159   0.20482   1.000
    C168    C    0.94645   0.75164   0.70483   1.000
    C169    C    0.40011   0.31873   0.20380   1.000
    C170    C    0.40008   0.31876   0.70380   1.000
    C171    C    0.40018   0.81874   0.20378   1.000
    C172    C    0.40013   0.81878   0.70381   1.000
    C173    C    0.90012   0.31873   0.20300   1.000
    C174    C    0.90009   0.31876   0.70379   1.000
    C175    C    0.90018   0.81875   0.20378   1.000
    C176    C    0.90014   0.81878   0.70381   1.000
    C177    C    0.03477   0.37445   0.28872   1.000
    C178    C    0.03474   0.37451   0.78869   1.000
    C179    C    0.03481   0.87450   0.28870   1.000
    C180    C    0.03477   0.87449   0.78875   1.000
    C181    C    0.53477   0.37445   0.28872   1.000
    C182    C    0.53474   0.37452   0.78869   1.000
    C183    C    0.53482   0.87450   0.28870   1.000
    C184    C    0.53477   0.87450   0.78875   1.000
    C185    C    0.25116   0.37683   0.37470   1.000
    C186    C    0.25114   0.37689   0.87465   1.000
    C187    C    0.25114   0.87681   0.37463   1.000
    C188    C    0.25108   0.87680   0.87470   1.000
    C189    C    0.75117   0.37684   0.37469   1.000
    C190    C    0.75115   0.37690   0.87465   1.000
    C191    C    0.75114   0.87682   0.37460   1.000
    C192    C    0.75109   0.87681   0.87470   1.000
    C193    C    0.25054   0.31141   0.43945   1.000
    C194    C    0.25054   0.31146   0.93900   1.000
    C195    C    0.25053   0.81138   0.43938   1.000
    C196    C    0.25050   0.81136   0.93945   1.000
    C197    C    0.75055   0.31141   0.43944   1.000
    C198    C    0.75055   0.31146   0.93939   1.000
    C199    C    0.75053   0.81138   0.43938   1.000
    C200    C    0.75050   0.81137   0.93944   1.000
    C201    C    0.31127   0.28123   0.47377   1.000
    C202    C    0.31128   0.28129   0.97371   1.000
    C203    C    0.31126   0.78121   0.47370   1.000
    C204    C    0.31124   0.78119   0.97376   1.000
    C205    C    0.81128   0.28124   0.47377   1.000
    C206    C    0.81129   0.28129   0.97371   1.000
    C207    C    0.81127   0.78121   0.47370   1.000
    O208    O    0.69203   0.09664   0.64787   1.000
    O209    O    0.69202   0.59659   0.14787   1.000
    O210    O    0.69200   0.59666   0.64782   1.000
    C211    C    0.18927   0.77967   0.96616   1.000
    C212    C    0.68932   0.27974   0.46615   1.000
    C213    C    0.68932   0.27977   0.96610   1.000
    C214    C    0.68931   0.77971   0.46608   1.000
    C215    C    0.68928   0.77968   0.96616   1.000
    C216    C    0.22815   0.09526   0.29590   1.000
    C217    C    0.22809   0.09527   0.79596   1.000
    C218    C    0.22822   0.59529   0.29500   1.000
    C219    C    0.22819   0.59534   0.79587   1.000
    C220    C    0.72816   0.09526   0.29590   1.000
    C221    C    0.72810   0.09527   0.79590   1.000
    C222    C    0.72823   0.59530   0.29589   1.000
    C223    C    0.72820   0.59534   0.79580   1.000
    C224    C    0.17542   0.15965   0.30460   1.000
    C225    C    0.17537   0.15968   0.80463   1.000
    C226    C    0.17548   0.65968   0.30459   1.000
    C227    C    0.17545   0.65971   0.80450   1.000
    C228    C    0.67543   0.15965   0.30459   1.000
    C229    C    0.67538   0.15968   0.80463   1.000
    C230    C    0.67549   0.65968   0.30459   1.000
    C231    C    0.67546   0.65971   0.80458   1.000
    C232    C    0.20248   0.20325   0.31638   1.000
    C233    C    0.20244   0.20329   0.81639   1.000
    C234    C    0.20254   0.70331   0.31635   1.000
    C235    C    0.20251   0.70332   0.81636   1.000
    C236    C    0.70249   0.20326   0.31637   1.000
    C237    C    0.70245   0.20329   0.81639   1.000
    C238    C    0.70255   0.70331   0.31634   1.000
    C239    C    0.70252   0.70332   0.81636   1.000
    C240    C    0.15620   0.27102   0.31451   1.000
    C241    C    0.15617   0.27107   0.81450   1.000
    C242    C    0.15626   0.77107   0.31448   1.000
    C243    C    0.15622   0.77108   0.81451   1.000
    C244    C    0.65621   0.27102   0.31451   1.000
    C245    C    0.65617   0.27107   0.81450   1.000
    C246    C    0.65627   0.77108   0.31447   1.000
    C247    C    0.65623   0.77108   0.81451   1.000
    C248    C    0.08211   0.29583   0.30120   1.000
    C249    C    0.08208   0.29588   0.80119   1.000
    C250    C    0.08217   0.79587   0.30118   1.000
    C251    C    0.08213   0.79587   0.80122   1.000
    C252    C    0.58212   0.29583   0.30120   1.000
    C253    C    0.58208   0.29588   0.80119   1.000
    C254    C    0.58217   0.79587   0.30118   1.000
    C255    C    0.58213   0.79588   0.80121   1.000
    C256    C    0.05364   0.24842   0.29515   1.000
    C257    C    0.05360   0.24847   0.79516   1.000
    C258    C    0.05369   0.74845   0.29516   1.000
    C259    C    0.05365   0.74846   0.79518   1.000
    C260    C    0.55364   0.24842   0.29515   1.000
    C261    C    0.55360   0.24847   0.79516   1.000
    C262    C    0.55370   0.74845   0.29516   1.000
    C263    C    0.55366   0.74847   0.79518   1.000
    C264    C    0.59990   0.18132   0.79620   1.000
    C265    C    0.60001   0.68131   0.29618   1.000
    C266    C    0.59998   0.68134   0.79618   1.000
    C267    C    0.46532   0.12558   0.21121   1.000
    C268    C    0.46527   0.12557   0.71127   1.000
    C269    C    0.46535   0.62555   0.21129   1.000
    C270    C    0.46532   0.62561   0.71120   1.000
    C271    C    0.96532   0.12558   0.21121   1.000
    C272    C    0.96528   0.12558   0.71127   1.000
    C273    C    0.96535   0.62555   0.21129   1.000
    C274    C    0.96532   0.62561   0.71126   1.000
    C275    C    0.24899   0.12326   0.12527   1.000
    C276    C    0.24894   0.12325   0.62534   1.000
    C277    C    0.24895   0.62318   0.12533   1.000
    C278    C    0.24893   0.62324   0.62528   1.000
    C279    C    0.74900   0.12326   0.12527   1.000
    C280    C    0.74895   0.12326   0.62534   1.000
    C281    C    0.74896   0.62318   0.12530   1.000
    C282    C    0.74893   0.62324   0.62528   1.000
    C283    C    0.24958   0.18871   0.06053   1.000
    C284    C    0.24955   0.18869   0.56000   1.000
    C285    C    0.24954   0.68862   0.06058   1.000
    C286    C    0.24954   0.68866   0.56053   1.000
    C287    C    0.74959   0.18871   0.06052   1.000
    C288    C    0.74956   0.18869   0.56059   1.000
    C289    C    0.74955   0.68862   0.06058   1.000
    C290    C    0.74955   0.68867   0.56053   1.000
    C291    C    0.18884   0.21888   0.02621   1.000
    C292    C    0.18882   0.21886   0.52627   1.000
    C293    C    0.18880   0.71879   0.02627   1.000
    C294    C    0.18880   0.71884   0.52621   1.000
    C295    C    0.68885   0.21888   0.02621   1.000
    C296    C    0.68883   0.21887   0.52627   1.000
    C297    C    0.68881   0.71879   0.02627   1.000
    C298    C    0.68881   0.71884   0.52621   1.000
    C299    C    0.31080   0.22040   0.03382   1.000
    C300    C    0.31078   0.22037   0.53389   1.000
    C301    C    0.31076   0.72030   0.03387   1.000
    C302    C    0.31077   0.72034   0.53382   1.000
    C303    C    0.81081   0.22040   0.03382   1.000
    C304    C    0.81078   0.22037   0.53389   1.000
    C305    C    0.81077   0.72030   0.03386   1.000
    C306    C    0.81078   0.72034   0.53382   1.000
    O307    O    0.20384   0.42390   0.19566   1.000
    O308    O    0.20382   0.42395   0.69563   1.000
    O309    O    0.20394   0.92400   0.19554   1.000
    O310    O    0.20389   0.92400   0.69559   1.000
    O311    O    0.70385   0.42390   0.19566   1.000
    O312    O    0.70383   0.42395   0.69562   1.000
    O313    O    0.70395   0.92400   0.19554   1.000
    O314    O    0.70390   0.92401   0.69559   1.000
    O315    O    0.29517   0.43691   0.22410   1.000
    O316    O    0.29514   0.43697   0.72406   1.000
    O317    O    0.29527   0.93698   0.22399   1.000
    O318    O    0.29521   0.93697   0.72406   1.000
    O319    O    0.79518   0.43691   0.22409   1.000
    O320    O    0.79515   0.43697   0.72406   1.000
    O321    O    0.79528   0.93699   0.22390   1.000
    O322    O    0.79522   0.93698   0.72406   1.000
    O323    O    0.46797   0.39346   0.27633   1.000
    O324    O    0.46794   0.39353   0.77630   1.000
    O325    O    0.46800   0.89349   0.27630   1.000
    O326    O    0.46795   0.89349   0.77641   1.000
    O327    O    0.96796   0.39346   0.27633   1.000
    O328    O    0.96794   0.39352   0.77630   1.000
    O329    O    0.96800   0.89349   0.27635   1.000
    O330    O    0.96795   0.89348   0.77641   1.000
    O331    O    0.06332   0.41935   0.28923   1.000
    O332    O    0.06330   0.41941   0.78919   1.000
    O333    O    0.06339   0.91942   0.28910   1.000
    O334    O    0.06334   0.91941   0.78922   1.000
    O335    O    0.56333   0.41935   0.28922   1.000
    O336    O    0.56330   0.41941   0.78919   1.000
    O337    O    0.56339   0.91942   0.28915   1.000
    O338    O    0.56334   0.91941   0.78922   1.000
    O339    O    0.19436   0.40204   0.34551   1.000
    O340    O    0.19433   0.40210   0.84547   1.000
    O341    O    0.19434   0.90200   0.34544   1.000
    O342    O    0.19428   0.90199   0.84552   1.000
    O343    O    0.69436   0.40205   0.34550   1.000
    O344    O    0.69434   0.40211   0.84546   1.000
    O345    O    0.69434   0.90200   0.34544   1.000
    O346    O    0.69429   0.90199   0.84552   1.000
    O347    O    0.30810   0.40341   0.35216   1.000
    O348    O    0.30807   0.40348   0.85211   1.000
    O349    O    0.30806   0.90342   0.35200   1.000
    O350    O    0.30800   0.90342   0.85216   1.000
    O351    O    0.80811   0.40342   0.35216   1.000
    O352    O    0.80808   0.40349   0.85211   1.000
    O353    O    0.80806   0.90343   0.35209   1.000
    O354    O    0.80801   0.90343   0.85216   1.000
    O355    O    0.29619   0.07605   0.30430   1.000
    O356    O    0.29613   0.07606   0.80444   1.000
    O357    O    0.29627   0.57613   0.30434   1.000
    O358    O    0.29624   0.57618   0.80431   1.000
    O359    O    0.79620   0.07606   0.30438   1.000
    O360    O    0.79614   0.07607   0.80443   1.000
    O361    O    0.79628   0.57613   0.30434   1.000
    O362    O    0.79625   0.57618   0.80431   1.000
    O363    O    0.20487   0.06310   0.27590   1.000
    O364    O    0.20481   0.06309   0.77597   1.000
    O365    O    0.20495   0.56310   0.27592   1.000
    O366    O    0.20492   0.56315   0.77580   1.000
    O367    O    0.70488   0.06311   0.27500   1.000
    O368    O    0.70482   0.06310   0.77597   1.000
    O369    O    0.70496   0.56310   0.27592   1.000
    O370    O    0.70493   0.56316   0.77588   1.000
    O371    O    0.03214   0.10659   0.22350   1.000
    O372    O    0.03209   0.10658   0.72361   1.000
    O373    O    0.03214   0.60653   0.22370   1.000
    O374    O    0.03212   0.60659   0.72367   1.000
    O375    O    0.53214   0.10659   0.22355   1.000
    O376    O    0.53209   0.10658   0.72361   1.000
    O377    O    0.53214   0.60653   0.22369   1.000
    O378    O    0.53212   0.60659   0.72366   1.000
    O379    O    0.43675   0.08067   0.21074   1.000
    O380    O    0.43669   0.08066   0.71081   1.000
    O381    O    0.43679   0.58065   0.21070   1.000
    O382    O    0.43676   0.58072   0.71075   1.000
    O383    O    0.93675   0.08067   0.21073   1.000
    O384    O    0.93670   0.08066   0.71080   1.000
    O385    O    0.93680   0.58065   0.21078   1.000
    O386    O    0.93677   0.58072   0.71075   1.000
    O387    O    0.30579   0.09808   0.15445   1.000
    O388    O    0.30574   0.09807   0.65453   1.000
    O389    O    0.30577   0.59796   0.15450   1.000
    O390    O    0.30574   0.59802   0.65446   1.000
    O391    O    0.80580   0.09808   0.15445   1.000
    O392    O    0.80575   0.09807   0.65453   1.000
    O393    O    0.80578   0.59797   0.15450   1.000
    O394    O    0.80575   0.59803   0.65446   1.000
    O395    O    0.19208   0.09664   0.14780   1.000
    O396    O    0.19202   0.09664   0.64787   1.000
    O397    O    0.19202   0.59658   0.14787   1.000
    O398    O    0.19199   0.59666   0.64782   1.000
    O399    O    0.69208   0.09665   0.14780   1.000
loop_
    _geom_bond_atom_site_label_1
    _geom_bond_atom_site_label_2
    _geom_bond_distance
    _geom_bond_site_symmetry_2
    _ccdc_geom_bond_type
    C295   H104      1.08892      .   S
    C295   C287      1.40372      .   S
    C295   C213      1.39096  1_554   S
    C291   H96       1.08895      .   S
    C291   C283      1.40387      .   S
    C291   C102      1.39097  1_554   S
    C297   H106      1.08896      .   S
    C297   C289      1.40381      .   S
    C297   C215      1.39094  1_554   S
    C293   H98       1.08894      .   S
    C293   C285      1.40379      .   S
    C293   C211      1.39093  1_554   S
    C299   C283      1.40414      .   S
    C299   H108      1.08912      .   S
    C299   C202      1.39094  1_554   S
    C303   C287      1.40414      .   S
    C303   H112      1.08911      .   S
    C303   C206      1.39095  1_554   S
    C305   C289      1.40414      .   S
    C305   H114      1.08920      .   S
    C305   C100      1.39096  1_554   S
    C301   C285      1.40414      .   S
    C301   H110      1.08904      .   S
    C301   C204      1.39095  1_554   S
    C287   C279      1.49738      .   S
    C283   C275      1.49722      .   S
    C289   C281      1.49682      .   S
    C285   C277      1.49733      .   S
    C275   O395      1.27425      .   S
    C275   O387      1.28021      .   S
    C279   O399      1.27425      .   S
    C279   O391      1.28019      .   S
    C281   O209      1.27424      .   S
    C281   O393      1.28068      .   S
    C277   O397      1.27424      .   S
    C277   O389      1.28020      .   S
    O399   La3       2.43782      .   S
    O395   La32      2.43793      .   S
    O397   La1       2.43811      .   S
    O209   La5       2.43799      .   S
    O387   La9       2.43602  1_545   S
    O391   La13      2.43600  1_545   S
    O393   La11      2.43520      .   S
    O389   La7       2.43541      .   S
    H21    C143      1.08858      .   S
    H17    C139      1.08865      .   S
    H15    C137      1.08892      .   S
    H19    C141      1.08851      .   S
    H27    C149      1.08968      .   S
    H23    C145      1.08750      .   S
    H29    C151      1.08854      .   S
    H25    C147      1.08854      .   S
    C143   C151      1.39185      .   S
    C143   C130      1.40480      .   S
    C139   C147      1.39194      .   S
    C139   C126      1.40480      .   S
    C141   C149      1.39176      .   S
    C141   C128      1.40507      .   S
    C137   C145      1.39251      .   S
    C137   C124      1.40491      .   S
    C145   C153      1.40417      .   S
    C149   C157      1.40360      .   S
    C151   C159      1.40363      .   S
    C147   C155      1.40367      .   S
    C130   C175      1.40234      .   S
    C130   C122      1.48909      .   S
    C126   C171      1.40227      .   S
    C126   C118      1.48883      .   S
    C128   C173      1.39743      .   S
    C128   C120      1.48919      .   S
    C124   C169      1.40232      .   S
    C124   C116      1.48907      .   S
    O313   C122      1.27083      .   S
    O313   La3       2.48891  1_565   S
    O309   C118      1.27074      .   S
    O309   La32      2.48907  1_565   S
    O307   C116      1.27092      .   S
    O307   La1       2.48912      .   S
    O311   C120      1.27090      .   S
    O311   La5       2.48892      .   S
    C157   C165      1.39007      .   S
    C157   C271      1.49996      .   S
    C153   C161      1.40242      .   S
    C153   C267      1.50001      .   S
    C159   C167      1.40238      .   S
    C159   C273      1.49995      .   S
    C155   C163      1.40236      .   S
    C155   C269      1.49995      .   S
    C173   C165      1.38948      .   S
    C173   H44       1.10237      .   S
    C171   C163      1.38944      .   S
    C171   H42       1.08884      .   S
    C175   C167      1.38946      .   S
    C175   H46       1.08732      .   S
    C169   C161      1.38947      .   S
    C169   H40       1.08871      .   S
    C118   O317      1.29368      .   S
    C165   H31       1.09170  1_655   S
    C122   O321      1.29169      .   S
    C116   O315      1.29340      .   S
    C120   O319      1.29321      .   S
    C161   H36       1.08637      .   S
    C163   H38       1.08642      .   S
    C167   H34       1.08639  1_655   S
    O381   C269      1.27325      .   S
    O381   La7       2.42447      .   S
    O383   C271      1.27220      .   S
    O383   La13      2.42401  1_545   S
    O379   C267      1.27205      .   S
    O379   La9       2.42406  1_545   S
    O385   C273      1.27215      .   S
    O385   La11      2.42470      .   S
    C267   O375      1.27913      .   S
    C271   O371      1.27863  1_655   S
    C269   O377      1.27916      .   S
    C273   O373      1.27915  1_655   S
    O371   La32      2.43131      .   S
    O375   La3       2.43132      .   S
    O377   La5       2.43115      .   S
    O373   La1       2.43117      .   S
    O321   La13      2.47297      .   S
    O317   La9       2.47139      .   S
    O319   La11      2.47235      .   S
    O315   La7       2.47238      .   S
    La3    O367      2.45504      .   S
    La3    O337      2.42387  1_545   S
    La3    O345      2.43605  1_545   S
    La32   O363      2.47139      .   S
    La32   O333      2.42405  1_545   S
    La32   O341      2.43583  1_545   S
    La5    O369      2.47253      .   S
    La5    O335      2.42482      .   S
    La5    O343      2.43514      .   S
    La1    O365      2.47232      .   S
    La1    O331      2.42476      .   S
    La1    O339      2.43510      .   S
    La9    O325      2.43132      .   S
    La9    O355      2.48730  1_565   S
    La9    O349      2.43675      .   S
    La13   O329      2.43132      .   S
    La13   O359      2.48893  1_565   S
    La13   O353      2.43792      .   S
    La11   O327      2.43119      .   S
    La11   O361      2.48912      .   S
    La11   O351      2.43818      .   S
    La7    O323      2.43120      .   S
    La7    O357      2.48890      .   S
    La7    O347      2.43808      .   S
    O367   C220      1.31155      .   S
    O363   C216      1.29324      .   S
    O365   C218      1.27534      .   S
    O369   C222      1.29331      .   S
    O325   C183      1.27965      .   S
    O327   C177      1.27915  1_655   S
    O323   C181      1.27920      .   S
    O329   C179      1.27912  1_655   S
    H84    C256      1.08637  1_655   S
    H80    C260      1.08639      .   S
    H82    C262      1.08641      .   S
    H86    C258      1.08639  1_655   S
    H88    C132      1.08881      .   S
    H92    C136      1.08882      .   S
    H90    C134      1.08880      .   S
    H94    C265      1.08876      .   S
    C179   O333      1.27136      .   S
    C179   C250      1.50004      .   S
    C183   O337      1.27208      .   S
    C183   C254      1.49999      .   S
    C181   O335      1.27202      .   S
    C181   C252      1.49997      .   S
    C177   O331      1.27217      .   S
    C177   C248      1.49995      .   S
    C218   O357      1.27724      .   S
    C218   C226      1.50040      .   S
    C256   C132      1.38943      .   S
    C256   C248      1.40248      .   S
    C260   C136      1.38938      .   S
    C260   C252      1.40247      .   S
    C262   C265      1.38949      .   S
    C262   C254      1.40243      .   S
    C258   C134      1.38949      .   S
    C258   C250      1.40239      .   S
    C222   O361      1.27091      .   S
    C222   C230      1.48920      .   S
    C220   O359      1.27085      .   S
    C220   C228      1.48904      .   S
    C216   O355      1.27027      .   S
    C216   C224      1.48912      .   S
    C132   C224      1.40234      .   S
    C136   C228      1.40230      .   S
    C134   C226      1.40234      .   S
    C265   C230      1.40234      .   S
    C254   C246      1.40358      .   S
    C250   C242      1.40364      .   S
    C248   C240      1.40363      .   S
    C252   C244      1.40365      .   S
    C226   C234      1.40487      .   S
    C228   C236      1.40482      .   S
    C230   C238      1.40472      .   S
    C224   C232      1.40484      .   S
    C246   C238      1.39186      .   S
    C246   H78       1.08869      .   S
    C242   C234      1.39185      .   S
    C242   H74       1.08855      .   S
    C244   C236      1.39192      .   S
    C244   H76       1.08852      .   S
    C240   C232      1.39183      .   S
    C240   H72       1.08851      .   S
    C238   H70       1.08861      .   S
    C234   H66       1.08861      .   S
    C236   H68       1.08863      .   S
    C232   H64       1.08857      .   S
    O345   C191      1.27984      .   S
    O341   C187      1.28031      .   S
    O343   C189      1.28031      .   S
    O339   C185      1.28034      .   S
    O349   C187      1.27423      .   S
    O353   C191      1.27425      .   S
    O347   C185      1.27423      .   S
    O351   C189      1.27424      .   S
    C191   C199      1.49776      .   S
    C187   C195      1.49730      .   S
    C189   C197      1.49725      .   S
    C185   C193      1.49724      .   S
    H58    C103      1.08922      .   S
    H62    C214      1.08907      .   S
    H60    C212      1.08917      .   S
    H56    C101      1.08915      .   S
    C195   C103      1.40415      .   S
    C195   C203      1.40379      .   S
    C199   C214      1.40414      .   S
    C199   C207      1.40380      .   S
    C197   C212      1.40415      .   S
    C197   C205      1.40389      .   S
    C193   C101      1.40414      .   S
    C193   C201      1.40375      .   S
    H50    C203      1.08896      .   S
    H54    C207      1.08896      .   S
    H52    C205      1.08896      .   S
    H48    C201      1.08894      .   S
    C214   C298      1.39112      .   S
    C103   C294      1.39095      .   S
    C212   C296      1.39098      .   S
    C101   C292      1.39099      .   S
    C203   C302      1.39098      .   S
    C207   C306      1.39097      .   S
    C201   C300      1.39097      .   S
    C205   C304      1.39096      .   S
    C294   H99       1.08895      .   S
    C294   C286      1.40379      .   S
    C298   H107      1.08894      .   S
    C298   C290      1.40379      .   S
    C296   H105      1.08895      .   S
    C296   C288      1.40374      .   S
    C292   H97       1.08895      .   S
    C292   C284      1.39455      .   S
    C302   C286      1.40414      .   S
    C302   H111      1.08922      .   S
    C306   C290      1.40415      .   S
    C306   H115      1.08906      .   S
    C304   C288      1.40415      .   S
    C304   H113      1.08917      .   S
    C300   C284      1.40399      .   S
    C300   H109      1.08914      .   S
    C284   C276      1.50682      .   S
    C290   C282      1.49729      .   S
    C286   C278      1.49727      .   S
    C288   C280      1.49731      .   S
    C278   O398      1.27423      .   S
    C278   O390      1.28028      .   S
    C282   O210      1.27423      .   S
    C282   O394      1.28027      .   S
    C276   O396      1.27425      .   S
    C276   O388      1.28026      .   S
    C280   O208      1.27425      .   S
    C280   O392      1.28027      .   S
    O210   La6       2.43813      .   S
    O398   La2       2.43812      .   S
    O208   La4       2.43759      .   S
    O396   La0       2.43799      .   S
    O394   La12      2.43521      .   S
    O390   La8       2.43523      .   S
    O392   La14      2.43586  1_545   S
    O388   La10      2.43589  1_545   S
    H18    C140      1.08861      .   S
    H22    C144      1.08860      .   S
    H16    C138      1.08861      .   S
    H20    C142      1.08863      .   S
    H30    C152      1.08749      .   S
    H26    C148      1.08867      .   S
    H28    C150      1.08030      .   S
    H24    C146      1.08871      .   S
    C140   C148      1.39185      .   S
    C140   C127      1.40485      .   S
    C144   C152      1.39251      .   S
    C144   C131      1.40487      .   S
    C138   C146      1.39186      .   S
    C138   C125      1.40485      .   S
    C142   C150      1.39666      .   S
    C142   C129      1.40485      .   S
    C150   C158      1.40759      .   S
    C152   C160      1.40414      .   S
    C148   C156      1.40361      .   S
    C146   C154      1.40360      .   S
    C127   C172      1.40231      .   S
    C127   C119      1.48907      .   S
    C131   C176      1.40230      .   S
    C131   C123      1.48905      .   S
    C125   C170      1.40236      .   S
    C125   C117      1.48910      .   S
    C129   C174      1.40229      .   S
    C129   C121      1.48907      .   S
    O310   C119      1.27087      .   S
    O310   La0       2.48914  1_565   S
    O314   C123      1.27088      .   S
    O314   La4       2.48856  1_565   S
    O312   C121      1.27093      .   S
    O312   La6       2.48916      .   S
    O308   C117      1.27087      .   S
    O308   La2       2.48895      .   S
    C160   C168      1.40244      .   S
    C160   C274      1.49999      .   S
    C156   C164      1.40246      .   S
    C156   C270      1.50033      .   S
    C158   C166      1.40251      .   S
    C158   C272      1.49996      .   S
    C154   C162      1.40248      .   S
    C154   C268      1.49997      .   S
    C174   C166      1.38941      .   S
    C174   H45       1.08874      .   S
    C170   C162      1.38948      .   S
    C170   H41       1.08201      .   S
    C172   C164      1.38945      .   S
    C172   H43       1.08881      .   S
    C176   C168      1.38945      .   S
    C176   H47       1.08865      .   S
    C123   O322      1.29329      .   S
    C119   O318      1.29327      .   S
    C117   O316      1.29339      .   S
    C121   O320      1.29342      .   S
    C166   H33       1.08635  1_655   S
    C162   H37       1.08585      .   S
    C168   H35       1.08635  1_655   S
    C164   H39       1.08638      .   S
    O386   C274      1.27204      .   S
    O386   La12      2.42470      .   S
    O382   C270      1.27121      .   S
    O382   La8       2.42474      .   S
    O384   C272      1.27224      .   S
    O384   La14      2.42396  1_545   S
    O380   C268      1.27212      .   S
    O380   La10      2.42402  1_545   S
    C270   O378      1.27973      .   S
    C274   O374      1.27922  1_655   S
    C272   O372      1.27904  1_655   S
    C268   O376      1.27912      .   S
    O376   La4       2.43133      .   S
    O372   La0       2.43133      .   S
    O378   La6       2.43116      .   S
    O374   La2       2.43117      .   S
    O316   La8       2.47238      .   S
    O318   La10      2.47144      .   S
    O320   La12      2.47235      .   S
    O322   La14      2.47141      .   S
    La4    O368      2.47182      .   S
    La4    O338      2.42390  1_545   S
    La4    O346      2.43652  1_545   S
    La6    O370      2.47238      .   S
    La6    O336      2.42481      .   S
    La6    O344      2.43514      .   S
    La2    O366      2.47085      .   S
    La2    O332      2.42478      .   S
    La2    O340      2.43528      .   S
    La0    O364      2.47128      .   S
    La0    O334      2.42387  1_545   S
    La0    O342      2.43597  1_545   S
    La12   O328      2.43118      .   S
    La12   O362      2.48905      .   S
    La12   O352      2.43806      .   S
    La8    O324      2.43118      .   S
    La8    O358      2.48909      .   S
    La8    O348      2.43807      .   S
    La10   O326      2.43133      .   S
    La10   O356      2.48910  1_565   S
    La10   O350      2.43788      .   S
    La14   O330      2.43132      .   S
    La14   O360      2.48889  1_565   S
    La14   O354      2.43786      .   S
    O366   C219      1.29515      .   S
    O370   C223      1.29205      .   S
    O364   C217      1.29342      .   S
    O368   C221      1.29224      .   S
    O328   C178      1.27909  1_655   S
    O324   C182      1.27914      .   S
    O330   C180      1.27907  1_655   S
    O326   C184      1.27911      .   S
    H81    C261      1.08689      .   S
    H85    C257      1.08637  1_655   S
    H87    C259      1.08643  1_655   S
    H83    C263      1.08644      .   S
    H95    C266      1.08875      .   S
    H91    C135      1.08872      .   S
    H93    C264      1.08883      .   S
    H89    C133      1.08883      .   S
    C178   O332      1.27212      .   S
    C178   C249      1.49994      .   S
    C182   O336      1.27216      .   S
    C182   C253      1.49992      .   S
    C180   O334      1.27220      .   S
    C180   C251      1.49996      .   S
    C184   O338      1.27216      .   S
    C184   C255      1.50000      .   S
    C257   C133      1.38943      .   S
    C257   C249      1.40241      .   S
    C261   C264      1.38942      .   S
    C261   C253      1.40241      .   S
    C263   C266      1.38951      .   S
    C263   C255      1.40230      .   S
    C259   C135      1.38951      .   S
    C259   C251      1.40244      .   S
    C223   O362      1.27135      .   S
    C223   C231      1.48994      .   S
    C219   O358      1.27087      .   S
    C219   C227      1.48806      .   S
    C221   O360      1.27119      .   S
    C221   C229      1.48978      .   S
    C217   O356      1.27085      .   S
    C217   C225      1.48907      .   S
    C266   C231      1.40230      .   S
    C135   C227      1.40179      .   S
    C264   C229      1.40231      .   S
    C133   C225      1.40232      .   S
    C249   C241      1.40359      .   S
    C253   C245      1.40361      .   S
    C255   C247      1.40368      .   S
    C251   C243      1.40361      .   S
    C227   C235      1.40638      .   S
    C231   C239      1.40493      .   S
    C225   C233      1.40478      .   S
    C229   C237      1.40480      .   S
    C245   C237      1.39184      .   S
    C245   H77       1.08858      .   S
    C241   C233      1.39184      .   S
    C241   H73       1.08875      .   S
    C247   C239      1.39186      .   S
    C247   H79       1.08851      .   S
    C243   C235      1.39186      .   S
    C243   H75       1.08867      .   S
    C235   H67       1.08856      .   S
    C239   H71       1.08857      .   S
    C237   H69       1.08862      .   S
    C233   H65       1.08862      .   S
    O344   C190      1.28040      .   S
    O340   C186      1.28026      .   S
    O346   C192      1.28023      .   S
    O342   C188      1.28022      .   S
    O352   C190      1.27423      .   S
    O348   C186      1.27422      .   S
    O350   C188      1.27426      .   S
    O354   C192      1.27426      .   S
    C190   C198      1.49715      .   S
    C186   C194      1.49093      .   S
    C188   C196      1.49734      .   S
    C192   C200      1.49717      .   S
    H61    C213      1.08912      .   S
    H57    C102      1.08912      .   S
    C194   C102      1.40435      .   S
    C194   C202      1.40999      .   S
    H59    C211      1.08920      .   S
    H63    C215      1.08919      .   S
    C198   C213      1.40414      .   S
    C198   C206      1.40388      .   S
    C200   C215      1.40415      .   S
    C200   C100      1.40379      .   S
    C196   C211      1.40415      .   S
    C196   C204      1.40378      .   S
    H53    C206      1.08895      .   S
    H49    C202      1.08896      .   S
    H55    C100      1.08895      .   S
    H51    C204      1.08895      .   S
    O315   La1       2.79748      .   S
    O316   La2       2.79740      .   S
    O317   La32      2.79880  1_565   S
    O318   La0       2.79866  1_565   S
    O319   La5       2.79755      .   S
    O320   La6       2.79749      .   S
    O321   La3       2.79933  1_565   S
    O322   La4       2.79853  1_565   S
    O363   La9       2.79872  1_545   S
    O364   La10      2.79885  1_545   S
    O365   La7       2.79740      .   S
    O366   La8       2.79699      .   S
    O367   La13      2.79361  1_545   S
    O368   La14      2.79878  1_545   S
    O369   La11      2.79737      .   S
    O370   La12      2.79738      .   S
