# CIF file generated by openbabel 2.4.90, see http://openbabel.sf.net
data_I
_chemical_name_common ''
_cell_length_a 19.314
_cell_length_b 21.4
_cell_length_c 26.004
_cell_angle_alpha 57.185
_cell_angle_beta 75.071
_cell_angle_gamma 69.375
_space_group_name_H-M_alt 'P 1'
_space_group_name_Hall 'P 1'
loop_
    _symmetry_equiv_pos_as_xyz
    x,y,z
loop_
    _atom_site_label
    _atom_site_type_symbol
    _atom_site_fract_x
    _atom_site_fract_y
    _atom_site_fract_z
    _atom_site_occupancy
    C0      C    0.27189   0.40473   0.20411   1.000
    C1      C    0.27187   0.40478   0.70408   1.000
    C2      C    0.27198   0.90480   0.20400   1.000
    C3      C    0.27193   0.90481   0.70407   1.000
    C4      C    0.77190   0.40473   0.20411   1.000
    C5      C    0.77187   0.40478   0.70408   1.000
    C6      C    0.77199   0.90480   0.20401   1.000
    C7      C    0.77194   0.90481   0.70407   1.000
    C8      C    0.03477   0.37445   0.28872   1.000
    C9      C    0.03474   0.37451   0.78869   1.000
    C10     C    0.03481   0.87450   0.28870   1.000
    C11     C    0.03477   0.87449   0.78875   1.000
    C12     C    0.53477   0.37445   0.28872   1.000
    C13     C    0.53474   0.37452   0.78869   1.000
    C14     C    0.53482   0.87450   0.28870   1.000
    C15     C    0.53477   0.87450   0.78875   1.000
    C16     C    0.25116   0.37683   0.37470   1.000
    C17     C    0.25114   0.37689   0.87465   1.000
    C18     C    0.25114   0.87681   0.37463   1.000
    C19     C    0.25108   0.87680   0.87470   1.000
    C20     C    0.75117   0.37684   0.37469   1.000
    C21     C    0.75115   0.37690   0.87465   1.000
    C22     C    0.75114   0.87682   0.37460   1.000
    C23     C    0.75109   0.87681   0.87470   1.000
    O24     O    0.69203   0.09664   0.64787   1.000
    O25     O    0.69202   0.59659   0.14787   1.000
    O26     O    0.69200   0.59666   0.64782   1.000
    C27     C    0.22815   0.09526   0.29590   1.000
    C28     C    0.22809   0.09527   0.79596   1.000
    C29     C    0.22822   0.59529   0.29500   1.000
    C30     C    0.22819   0.59534   0.79587   1.000
    C31     C    0.72816   0.09526   0.29590   1.000
    C32     C    0.72810   0.09527   0.79590   1.000
    C33     C    0.72823   0.59530   0.29589   1.000
    C34     C    0.72820   0.59534   0.79580   1.000
    C35     C    0.46532   0.12558   0.21121   1.000
    C36     C    0.46527   0.12557   0.71127   1.000
    C37     C    0.46535   0.62555   0.21129   1.000
    C38     C    0.46532   0.62561   0.71120   1.000
    C39     C    0.96532   0.12558   0.21121   1.000
    C40     C    0.96528   0.12558   0.71127   1.000
    C41     C    0.96535   0.62555   0.21129   1.000
    C42     C    0.96532   0.62561   0.71126   1.000
    C43     C    0.24899   0.12326   0.12527   1.000
    C44     C    0.24894   0.12325   0.62534   1.000
    C45     C    0.24895   0.62318   0.12533   1.000
    C46     C    0.24893   0.62324   0.62528   1.000
    C47     C    0.74900   0.12326   0.12527   1.000
    C48     C    0.74895   0.12326   0.62534   1.000
    C49     C    0.74896   0.62318   0.12530   1.000
    C50     C    0.74893   0.62324   0.62528   1.000
    O51     O    0.20384   0.42390   0.19566   1.000
    O52     O    0.20382   0.42395   0.69563   1.000
    O53     O    0.20394   0.92400   0.19554   1.000
    O54     O    0.20389   0.92400   0.69559   1.000
    O55     O    0.70385   0.42390   0.19566   1.000
    O56     O    0.70383   0.42395   0.69562   1.000
    O57     O    0.70395   0.92400   0.19554   1.000
    O58     O    0.70390   0.92401   0.69559   1.000
    O59     O    0.29517   0.43691   0.22410   1.000
    O60     O    0.29514   0.43697   0.72406   1.000
    O61     O    0.29527   0.93698   0.22399   1.000
    O62     O    0.29521   0.93697   0.72406   1.000
    O63     O    0.79518   0.43691   0.22409   1.000
    O64     O    0.79515   0.43697   0.72406   1.000
    O65     O    0.79528   0.93699   0.22390   1.000
    O66     O    0.79522   0.93698   0.72406   1.000
    O67     O    0.46797   0.39346   0.27633   1.000
    O68     O    0.46794   0.39353   0.77630   1.000
    O69     O    0.46800   0.89349   0.27630   1.000
    O70     O    0.46795   0.89349   0.77641   1.000
    O71     O    0.96796   0.39346   0.27633   1.000
    O72     O    0.96794   0.39352   0.77630   1.000
    O73     O    0.96800   0.89349   0.27635   1.000
    O74     O    0.96795   0.89348   0.77641   1.000
    O75     O    0.06332   0.41935   0.28923   1.000
    O76     O    0.06330   0.41941   0.78919   1.000
    O77     O    0.06339   0.91942   0.28910   1.000
    O78     O    0.06334   0.91941   0.78922   1.000
    O79     O    0.56333   0.41935   0.28922   1.000
    O80     O    0.56330   0.41941   0.78919   1.000
    O81     O    0.56339   0.91942   0.28915   1.000
    O82     O    0.56334   0.91941   0.78922   1.000
    O83     O    0.19436   0.40204   0.34551   1.000
    O84     O    0.19433   0.40210   0.84547   1.000
    O85     O    0.19434   0.90200   0.34544   1.000
    O86     O    0.19428   0.90199   0.84552   1.000
    O87     O    0.69436   0.40205   0.34550   1.000
    O88     O    0.69434   0.40211   0.84546   1.000
    O89     O    0.69434   0.90200   0.34544   1.000
    O90     O    0.69429   0.90199   0.84552   1.000
    O91     O    0.30810   0.40341   0.35216   1.000
    O92     O    0.30807   0.40348   0.85211   1.000
    O93     O    0.30806   0.90342   0.35200   1.000
    O94     O    0.30800   0.90342   0.85216   1.000
    O95     O    0.80811   0.40342   0.35216   1.000
    O96     O    0.80808   0.40349   0.85211   1.000
    O97     O    0.80806   0.90343   0.35209   1.000
    O98     O    0.80801   0.90343   0.85216   1.000
    O99     O    0.29619   0.07605   0.30430   1.000
    O100    O    0.29613   0.07606   0.80444   1.000
    O101    O    0.29627   0.57613   0.30434   1.000
    O102    O    0.29624   0.57618   0.80431   1.000
    O103    O    0.79620   0.07606   0.30438   1.000
    O104    O    0.79614   0.07607   0.80443   1.000
    O105    O    0.79628   0.57613   0.30434   1.000
    O106    O    0.79625   0.57618   0.80431   1.000
    O107    O    0.20487   0.06310   0.27590   1.000
    O108    O    0.20481   0.06309   0.77597   1.000
    O109    O    0.20495   0.56310   0.27592   1.000
    O110    O    0.20492   0.56315   0.77580   1.000
    O111    O    0.70488   0.06311   0.27500   1.000
    O112    O    0.70482   0.06310   0.77597   1.000
    O113    O    0.70496   0.56310   0.27592   1.000
    O114    O    0.70493   0.56316   0.77588   1.000
    O115    O    0.03214   0.10659   0.22350   1.000
    O116    O    0.03209   0.10658   0.72361   1.000
    O117    O    0.03214   0.60653   0.22370   1.000
    O118    O    0.03212   0.60659   0.72367   1.000
    O119    O    0.53214   0.10659   0.22355   1.000
    O120    O    0.53209   0.10658   0.72361   1.000
    O121    O    0.53214   0.60653   0.22369   1.000
    O122    O    0.53212   0.60659   0.72366   1.000
    O123    O    0.43675   0.08067   0.21074   1.000
    O124    O    0.43669   0.08066   0.71081   1.000
    O125    O    0.43679   0.58065   0.21070   1.000
    O126    O    0.43676   0.58072   0.71075   1.000
    O127    O    0.93675   0.08067   0.21073   1.000
    O128    O    0.93670   0.08066   0.71080   1.000
    O129    O    0.93680   0.58065   0.21078   1.000
    O130    O    0.93677   0.58072   0.71075   1.000
    O131    O    0.30579   0.09808   0.15445   1.000
    O132    O    0.30574   0.09807   0.65453   1.000
    O133    O    0.30577   0.59796   0.15450   1.000
    O134    O    0.30574   0.59802   0.65446   1.000
    O135    O    0.80580   0.09808   0.15445   1.000
    O136    O    0.80575   0.09807   0.65453   1.000
    O137    O    0.80578   0.59797   0.15450   1.000
    O138    O    0.80575   0.59803   0.65446   1.000
    O139    O    0.19208   0.09664   0.14780   1.000
    O140    O    0.19202   0.09664   0.64787   1.000
    O141    O    0.19202   0.59658   0.14787   1.000
    O142    O    0.19199   0.59666   0.64782   1.000
    O143    O    0.69208   0.09665   0.14780   1.000
loop_
    _geom_bond_atom_site_label_1
    _geom_bond_atom_site_label_2
    _geom_bond_distance
    _geom_bond_site_symmetry_2
    _ccdc_geom_bond_type
    C43    O139      1.27425      .   S
    C43    O131      1.28021      .   S
    C47    O143      1.27425      .   S
    C47    O135      1.28019      .   S
    C49    O25       1.27424      .   S
    C49    O137      1.28068      .   S
    C45    O141      1.27424      .   S
    C45    O133      1.28020      .   S
    O57    C6        1.27083      .   S
    O53    C2        1.27074      .   S
    O51    C0        1.27092      .   S
    O55    C4        1.27090      .   S
    C2     O61       1.29368      .   S
    C6     O65       1.29169      .   S
    C0     O59       1.29340      .   S
    C4     O63       1.29321      .   S
    O125   C37       1.27325      .   S
    O127   C39       1.27220      .   S
    O123   C35       1.27205      .   S
    O129   C41       1.27215      .   S
    C35    O119      1.27913      .   S
    C39    O115      1.27863  1_655   S
    C37    O121      1.27916      .   S
    C41    O117      1.27915  1_655   S
    O111   C31       1.31155      .   S
    O107   C27       1.29324      .   S
    O109   C29       1.27534      .   S
    O113   C33       1.29331      .   S
    O69    C14       1.27965      .   S
    O71    C8        1.27915  1_655   S
    O67    C12       1.27920      .   S
    O73    C10       1.27912  1_655   S
    C10    O77       1.27136      .   S
    C14    O81       1.27208      .   S
    C12    O79       1.27202      .   S
    C8     O75       1.27217      .   S
    C29    O101      1.27724      .   S
    C33    O105      1.27091      .   S
    C31    O103      1.27085      .   S
    C27    O99       1.27027      .   S
    O89    C22       1.27984      .   S
    O85    C18       1.28031      .   S
    O87    C20       1.28031      .   S
    O83    C16       1.28034      .   S
    O93    C18       1.27423      .   S
    O97    C22       1.27425      .   S
    O91    C16       1.27423      .   S
    O95    C20       1.27424      .   S
    C46    O142      1.27423      .   S
    C46    O134      1.28028      .   S
    C50    O26       1.27423      .   S
    C50    O138      1.28027      .   S
    C44    O140      1.27425      .   S
    C44    O132      1.28026      .   S
    C48    O24       1.27425      .   S
    C48    O136      1.28027      .   S
    O54    C3        1.27087      .   S
    O58    C7        1.27088      .   S
    O56    C5        1.27093      .   S
    O52    C1        1.27087      .   S
    C7     O66       1.29329      .   S
    C3     O62       1.29327      .   S
    C1     O60       1.29339      .   S
    C5     O64       1.29342      .   S
    O130   C42       1.27204      .   S
    O126   C38       1.27121      .   S
    O128   C40       1.27224      .   S
    O124   C36       1.27212      .   S
    C38    O122      1.27973      .   S
    C42    O118      1.27922  1_655   S
    C40    O116      1.27904  1_655   S
    C36    O120      1.27912      .   S
    O110   C30       1.29515      .   S
    O114   C34       1.29205      .   S
    O108   C28       1.29342      .   S
    O112   C32       1.29224      .   S
    O72    C9        1.27909  1_655   S
    O68    C13       1.27914      .   S
    O74    C11       1.27907  1_655   S
    O70    C15       1.27911      .   S
    C9     O76       1.27212      .   S
    C13    O80       1.27216      .   S
    C11    O78       1.27220      .   S
    C15    O82       1.27216      .   S
    C34    O106      1.27135      .   S
    C30    O102      1.27087      .   S
    C32    O104      1.27119      .   S
    C28    O100      1.27085      .   S
    O88    C21       1.28040      .   S
    O84    C17       1.28026      .   S
    O90    C23       1.28023      .   S
    O86    C19       1.28022      .   S
    O96    C21       1.27423      .   S
    O92    C17       1.27422      .   S
    O94    C19       1.27426      .   S
    O98    C23       1.27426      .   S
