# CIF file generated by openbabel 2.4.90, see http://openbabel.sf.net
data_I
_chemical_name_common ''
_cell_length_a 19.314
_cell_length_b 21.4
_cell_length_c 26.004
_cell_angle_alpha 57.185
_cell_angle_beta 75.071
_cell_angle_gamma 69.375
_space_group_name_H-M_alt 'P 1'
_space_group_name_Hall 'P 1'
loop_
    _symmetry_equiv_pos_as_xyz
    x,y,z
loop_
    _atom_site_label
    _atom_site_type_symbol
    _atom_site_fract_x
    _atom_site_fract_y
    _atom_site_fract_z
    _atom_site_occupancy
    Zr0     Zr   0.14567   0.00264   0.24676   1.000
    Zr1     Zr   0.14562   0.00262   0.74683   1.000
    Zr2     Zr   0.14565   0.50257   0.24686   1.000
    Zr3     Zr   0.14563   0.50263   0.74681   1.000
    Zr4     Zr   0.64567   0.00264   0.24675   1.000
    Zr5     Zr   0.64562   0.00263   0.74680   1.000
    Zr6     Zr   0.64566   0.50257   0.24685   1.000
    Zr7     Zr   0.64563   0.50264   0.74681   1.000
    Zr8     Zr   0.35446   0.49743   0.25317   1.000
    Zr9     Zr   0.35444   0.49750   0.75312   1.000
    Zr10    Zr   0.35447   0.99744   0.25314   1.000
    Zr11    Zr   0.35441   0.99743   0.75321   1.000
    Zr12    Zr   0.85446   0.49744   0.25316   1.000
    Zr13    Zr   0.85444   0.49750   0.75312   1.000
    Zr14    Zr   0.85447   0.99745   0.25314   1.000
    Zr15    Zr   0.85442   0.99744   0.75321   1.000
    Zr16    Zr   0.27189   0.40473   0.20411   1.000
    Zr17    Zr   0.27187   0.40478   0.70408   1.000
    Zr18    Zr   0.27198   0.90480   0.20400   1.000
    Zr19    Zr   0.27193   0.90481   0.70407   1.000
    Zr20    Zr   0.77190   0.40473   0.20411   1.000
    Zr21    Zr   0.77187   0.40478   0.70408   1.000
    Zr22    Zr   0.77199   0.90480   0.20401   1.000
    Zr23    Zr   0.77194   0.90481   0.70407   1.000
    Zr24    Zr   0.03477   0.37445   0.28872   1.000
    Zr25    Zr   0.03474   0.37451   0.78869   1.000
    Zr26    Zr   0.03481   0.87450   0.28870   1.000
    Zr27    Zr   0.03477   0.87449   0.78875   1.000
    Zr28    Zr   0.53477   0.37445   0.28872   1.000
    Zr29    Zr   0.53474   0.37452   0.78869   1.000
    Zr30    Zr   0.53482   0.87450   0.28870   1.000
    Zr31    Zr   0.53477   0.87450   0.78875   1.000
    Zr32    Zr   0.25116   0.37683   0.37470   1.000
    Zr33    Zr   0.25114   0.37689   0.87465   1.000
    Zr34    Zr   0.25114   0.87681   0.37463   1.000
    Zr35    Zr   0.25108   0.87680   0.87470   1.000
    Zr36    Zr   0.75117   0.37684   0.37469   1.000
    Zr37    Zr   0.75115   0.37690   0.87465   1.000
    Zr38    Zr   0.75114   0.87682   0.37460   1.000
    Zr39    Zr   0.75109   0.87681   0.87470   1.000
    Zr40    Zr   0.22815   0.09526   0.29590   1.000
    Zr41    Zr   0.22809   0.09527   0.79596   1.000
    Zr42    Zr   0.22822   0.59529   0.29500   1.000
    Zr43    Zr   0.22819   0.59534   0.79587   1.000
    Zr44    Zr   0.72816   0.09526   0.29590   1.000
    Zr45    Zr   0.72810   0.09527   0.79590   1.000
    Zr46    Zr   0.72823   0.59530   0.29589   1.000
    Zr47    Zr   0.72820   0.59534   0.79580   1.000
    Zr48    Zr   0.46532   0.12558   0.21121   1.000
    Zr49    Zr   0.46527   0.12557   0.71127   1.000
    Zr50    Zr   0.46535   0.62555   0.21129   1.000
    Zr51    Zr   0.46532   0.62561   0.71120   1.000
    Zr52    Zr   0.96532   0.12558   0.21121   1.000
    Zr53    Zr   0.96528   0.12558   0.71127   1.000
    Zr54    Zr   0.96535   0.62555   0.21129   1.000
    Zr55    Zr   0.96532   0.62561   0.71126   1.000
    Zr56    Zr   0.24899   0.12326   0.12527   1.000
    Zr57    Zr   0.24894   0.12325   0.62534   1.000
    Zr58    Zr   0.24895   0.62318   0.12533   1.000
    Zr59    Zr   0.24893   0.62324   0.62528   1.000
    Zr60    Zr   0.74900   0.12326   0.12527   1.000
    Zr61    Zr   0.74895   0.12326   0.62534   1.000
    Zr62    Zr   0.74896   0.62318   0.12530   1.000
    Zr63    Zr   0.74893   0.62324   0.62528   1.000
    Zr64    Zr   0.20384   0.42390   0.19566   1.000
    Zr65    Zr   0.20382   0.42395   0.69563   1.000
    Zr66    Zr   0.20394   0.92400   0.19554   1.000
    Zr67    Zr   0.20389   0.92400   0.69559   1.000
    Zr68    Zr   0.70385   0.42390   0.19566   1.000
    Zr69    Zr   0.70383   0.42395   0.69562   1.000
    Zr70    Zr   0.70395   0.92400   0.19554   1.000
    Zr71    Zr   0.70390   0.92401   0.69559   1.000
    Zr72    Zr   0.29517   0.43691   0.22410   1.000
    Zr73    Zr   0.29514   0.43697   0.72406   1.000
    Zr74    Zr   0.29527   0.93698   0.22399   1.000
    Zr75    Zr   0.29521   0.93697   0.72406   1.000
    Zr76    Zr   0.79518   0.43691   0.22409   1.000
    Zr77    Zr   0.79515   0.43697   0.72406   1.000
    Zr78    Zr   0.79528   0.93699   0.22390   1.000
    Zr79    Zr   0.79522   0.93698   0.72406   1.000
    Zr80    Zr   0.46797   0.39346   0.27633   1.000
    Zr81    Zr   0.46794   0.39353   0.77630   1.000
    Zr82    Zr   0.46800   0.89349   0.27630   1.000
    Zr83    Zr   0.46795   0.89349   0.77641   1.000
    Zr84    Zr   0.96796   0.39346   0.27633   1.000
    Zr85    Zr   0.96794   0.39352   0.77630   1.000
    Zr86    Zr   0.96800   0.89349   0.27635   1.000
    Zr87    Zr   0.96795   0.89348   0.77641   1.000
    Zr88    Zr   0.06332   0.41935   0.28923   1.000
    Zr89    Zr   0.06330   0.41941   0.78919   1.000
    Zr90    Zr   0.06339   0.91942   0.28910   1.000
    Zr91    Zr   0.06334   0.91941   0.78922   1.000
    Zr92    Zr   0.56333   0.41935   0.28922   1.000
    Zr93    Zr   0.56330   0.41941   0.78919   1.000
    Zr94    Zr   0.56339   0.91942   0.28915   1.000
    Zr95    Zr   0.56334   0.91941   0.78922   1.000
    Zr96    Zr   0.19436   0.40204   0.34551   1.000
    Zr97    Zr   0.19433   0.40210   0.84547   1.000
    Zr98    Zr   0.19434   0.90200   0.34544   1.000
    Zr99    Zr   0.19428   0.90199   0.84552   1.000
    Zr100   Zr   0.69436   0.40205   0.34550   1.000
    Zr101   Zr   0.69434   0.40211   0.84546   1.000
    Zr102   Zr   0.69434   0.90200   0.34544   1.000
    Zr103   Zr   0.69429   0.90199   0.84552   1.000
    Zr104   Zr   0.30810   0.40341   0.35216   1.000
    Zr105   Zr   0.30807   0.40348   0.85211   1.000
    Zr106   Zr   0.30806   0.90342   0.35200   1.000
    Zr107   Zr   0.30800   0.90342   0.85216   1.000
    Zr108   Zr   0.80811   0.40342   0.35216   1.000
    Zr109   Zr   0.80808   0.40349   0.85211   1.000
    Zr110   Zr   0.80806   0.90343   0.35209   1.000
    Zr111   Zr   0.80801   0.90343   0.85216   1.000
    Zr112   Zr   0.29619   0.07605   0.30430   1.000
    Zr113   Zr   0.29613   0.07606   0.80444   1.000
    Zr114   Zr   0.29627   0.57613   0.30434   1.000
    Zr115   Zr   0.29624   0.57618   0.80431   1.000
    Zr116   Zr   0.79620   0.07606   0.30438   1.000
    Zr117   Zr   0.79614   0.07607   0.80443   1.000
    Zr118   Zr   0.79628   0.57613   0.30434   1.000
    Zr119   Zr   0.79625   0.57618   0.80431   1.000
    Zr120   Zr   0.20487   0.06310   0.27590   1.000
    Zr121   Zr   0.20481   0.06309   0.77597   1.000
    Zr122   Zr   0.20495   0.56310   0.27592   1.000
    Zr123   Zr   0.20492   0.56315   0.77580   1.000
    Zr124   Zr   0.70488   0.06311   0.27500   1.000
    Zr125   Zr   0.70482   0.06310   0.77597   1.000
    Zr126   Zr   0.70496   0.56310   0.27592   1.000
    Zr127   Zr   0.70493   0.56316   0.77588   1.000
    Zr128   Zr   0.03214   0.10659   0.22350   1.000
    Zr129   Zr   0.03209   0.10658   0.72361   1.000
    Zr130   Zr   0.03214   0.60653   0.22370   1.000
    Zr131   Zr   0.03212   0.60659   0.72367   1.000
    Zr132   Zr   0.53214   0.10659   0.22355   1.000
    Zr133   Zr   0.53209   0.10658   0.72361   1.000
    Zr134   Zr   0.53214   0.60653   0.22369   1.000
    Zr135   Zr   0.53212   0.60659   0.72366   1.000
    Zr136   Zr   0.43675   0.08067   0.21074   1.000
    Zr137   Zr   0.43669   0.08066   0.71081   1.000
    Zr138   Zr   0.43679   0.58065   0.21070   1.000
    Zr139   Zr   0.43676   0.58072   0.71075   1.000
    Zr140   Zr   0.93675   0.08067   0.21073   1.000
    Zr141   Zr   0.93670   0.08066   0.71080   1.000
    Zr142   Zr   0.93680   0.58065   0.21078   1.000
    Zr143   Zr   0.93677   0.58072   0.71075   1.000
    Zr144   Zr   0.30579   0.09808   0.15445   1.000
    Zr145   Zr   0.30574   0.09807   0.65453   1.000
    Zr146   Zr   0.30577   0.59796   0.15450   1.000
    Zr147   Zr   0.30574   0.59802   0.65446   1.000
    Zr148   Zr   0.80580   0.09808   0.15445   1.000
    Zr149   Zr   0.80575   0.09807   0.65453   1.000
    Zr150   Zr   0.80578   0.59797   0.15450   1.000
    Zr151   Zr   0.80575   0.59803   0.65446   1.000
    Zr152   Zr   0.19208   0.09664   0.14780   1.000
    Zr153   Zr   0.19202   0.09664   0.64787   1.000
    Zr154   Zr   0.19202   0.59658   0.14787   1.000
    Zr155   Zr   0.19199   0.59666   0.64782   1.000
    Zr156   Zr   0.69208   0.09665   0.14780   1.000
    Zr157   Zr   0.69203   0.09664   0.64787   1.000
    Zr158   Zr   0.69202   0.59659   0.14787   1.000
    Zr159   Zr   0.69200   0.59666   0.64782   1.000
    O160    O    0.22053   0.10995   0.13653   1.000
    O161    O    0.27739   0.11067   0.13986   1.000
    O162    O    0.72054   0.10996   0.13653   1.000
    O163    O    0.77740   0.11067   0.13986   1.000
    O164    O    0.72049   0.60989   0.13658   1.000
    O165    O    0.77737   0.61057   0.13990   1.000
    O166    O    0.22048   0.60988   0.13660   1.000
    O167    O    0.27736   0.61057   0.13991   1.000
    O168    O    0.66888   0.04964   0.19727   1.000
    O169    O    0.16887   0.04964   0.19728   1.000
    O170    O    0.16884   0.54958   0.19736   1.000
    O171    O    0.66884   0.54958   0.19736   1.000
    O172    O    0.33013   0.04776   0.20379   1.000
    O173    O    0.83013   0.04777   0.20379   1.000
    O174    O    0.83012   0.54770   0.20383   1.000
    O175    O    0.33011   0.54770   0.20383   1.000
    O176    O    0.73797   0.91440   0.19977   1.000
    O177    O    0.67481   0.96332   0.22114   1.000
    O178    O    0.23796   0.91440   0.19977   1.000
    O179    O    0.17481   0.96332   0.22115   1.000
    O180    O    0.23787   0.41431   0.19988   1.000
    O181    O    0.17475   0.46323   0.22126   1.000
    O182    O    0.73788   0.41432   0.19988   1.000
    O183    O    0.67475   0.46324   0.22125   1.000
    O184    O    0.28363   0.92089   0.21399   1.000
    O185    O    0.78363   0.92089   0.21395   1.000
    O186    O    0.28353   0.42082   0.21410   1.000
    O187    O    0.78354   0.42082   0.21410   1.000
    O188    O    0.45107   0.60310   0.21099   1.000
    O189    O    0.39563   0.53904   0.23193   1.000
    O190    O    0.95104   0.10313   0.21097   1.000
    O191    O    0.89561   0.03906   0.23193   1.000
    O192    O    0.45103   0.10313   0.21097   1.000
    O193    O    0.39561   0.03906   0.23194   1.000
    O194    O    0.95107   0.60310   0.21103   1.000
    O195    O    0.89563   0.53904   0.23197   1.000
    O196    O    0.49873   0.11608   0.21738   1.000
    O197    O    0.99873   0.11609   0.21736   1.000
    O198    O    0.49875   0.61604   0.21749   1.000
    O199    O    0.99875   0.61604   0.21750   1.000
    O200    O    0.08890   0.05461   0.23513   1.000
    O201    O    0.58890   0.05461   0.23515   1.000
    O202    O    0.58890   0.55455   0.23527   1.000
    O203    O    0.08890   0.55455   0.23528   1.000
    O204    O    0.82487   0.96722   0.23852   1.000
    O205    O    0.32487   0.96721   0.23856   1.000
    O206    O    0.82482   0.46717   0.23862   1.000
    O207    O    0.32481   0.46717   0.23863   1.000
    O208    O    0.67528   0.03287   0.26088   1.000
    O209    O    0.60453   0.96103   0.26795   1.000
    O210    O    0.67001   0.95232   0.29609   1.000
    O211    O    0.17527   0.03287   0.26133   1.000
    O212    O    0.10453   0.96103   0.26793   1.000
    O213    O    0.17000   0.95232   0.29610   1.000
    O214    O    0.67531   0.53284   0.26138   1.000
    O215    O    0.60449   0.46096   0.26803   1.000
    O216    O    0.67001   0.45231   0.29617   1.000
    O217    O    0.17530   0.53283   0.26139   1.000
    O218    O    0.10449   0.46096   0.26804   1.000
    O219    O    0.17000   0.45231   0.29618   1.000
    O220    O    0.41123   0.94547   0.26472   1.000
    O221    O    0.32533   0.03675   0.27872   1.000
    O222    O    0.33126   0.95043   0.30257   1.000
    O223    O    0.91123   0.94547   0.26474   1.000
    O224    O    0.82533   0.03675   0.27876   1.000
    O225    O    0.83127   0.95044   0.30261   1.000
    O226    O    0.91121   0.44545   0.26474   1.000
    O227    O    0.82537   0.53679   0.27875   1.000
    O228    O    0.83129   0.45043   0.30266   1.000
    O229    O    0.41121   0.44545   0.26475   1.000
    O230    O    0.32536   0.53678   0.27875   1.000
    O231    O    0.33128   0.45042   0.30266   1.000
    O232    O    0.71652   0.07918   0.28545   1.000
    O233    O    0.21651   0.07918   0.28590   1.000
    O234    O    0.21658   0.57919   0.28546   1.000
    O235    O    0.71659   0.57920   0.28590   1.000
    O236    O    0.50141   0.88400   0.28250   1.000
    O237    O    0.00136   0.38396   0.28252   1.000
    O238    O    0.50137   0.38396   0.28252   1.000
    O239    O    0.00140   0.88400   0.28252   1.000
    O240    O    0.04910   0.89696   0.28890   1.000
    O241    O    0.54911   0.89696   0.28893   1.000
    O242    O    0.54905   0.39690   0.28897   1.000
    O243    O    0.04904   0.39690   0.28897   1.000
    O244    O    0.26224   0.58571   0.29967   1.000
    O245    O    0.76225   0.58571   0.30011   1.000
    O246    O    0.76218   0.08566   0.30014   1.000
    O247    O    0.26217   0.08565   0.30010   1.000
    O248    O    0.72274   0.88941   0.36002   1.000
    O249    O    0.22274   0.88940   0.36003   1.000
    O250    O    0.72277   0.38944   0.36009   1.000
    O251    O    0.22276   0.38944   0.36010   1.000
    O252    O    0.27960   0.89012   0.36331   1.000
    O253    O    0.77960   0.89012   0.36334   1.000
    O254    O    0.27963   0.39012   0.36343   1.000
    O255    O    0.77964   0.39013   0.36342   1.000
    O256    O    0.22046   0.60995   0.63655   1.000
    O257    O    0.27733   0.61063   0.63987   1.000
    O258    O    0.72047   0.60995   0.63655   1.000
    O259    O    0.77734   0.61063   0.63987   1.000
    O260    O    0.22048   0.10995   0.63660   1.000
    O261    O    0.27734   0.11066   0.63993   1.000
    O262    O    0.72049   0.10995   0.63660   1.000
    O263    O    0.77735   0.11067   0.63993   1.000
    O264    O    0.66881   0.54965   0.69731   1.000
    O265    O    0.16881   0.54964   0.69731   1.000
    O266    O    0.66883   0.04964   0.69733   1.000
    O267    O    0.16882   0.04963   0.69735   1.000
    O268    O    0.83009   0.54776   0.70379   1.000
    O269    O    0.33009   0.54776   0.70379   1.000
    O270    O    0.83008   0.04775   0.70387   1.000
    O271    O    0.33008   0.04775   0.70387   1.000
    O272    O    0.23791   0.91441   0.69983   1.000
    O273    O    0.17475   0.96331   0.72121   1.000
    O274    O    0.73792   0.91441   0.69983   1.000
    O275    O    0.67476   0.96332   0.72120   1.000
    O276    O    0.73785   0.41436   0.69985   1.000
    O277    O    0.67473   0.46329   0.72121   1.000
    O278    O    0.23784   0.41436   0.69985   1.000
    O279    O    0.17472   0.46329   0.72122   1.000
    O280    O    0.78358   0.92089   0.71406   1.000
    O281    O    0.28357   0.92089   0.71406   1.000
    O282    O    0.28350   0.42087   0.71407   1.000
    O283    O    0.78351   0.42087   0.71407   1.000
    O284    O    0.95105   0.60316   0.71100   1.000
    O285    O    0.89560   0.53911   0.73194   1.000
    O286    O    0.45104   0.60316   0.71097   1.000
    O287    O    0.39560   0.53911   0.73194   1.000
    O288    O    0.95099   0.10312   0.71103   1.000
    O289    O    0.89556   0.03905   0.73200   1.000
    O290    O    0.45098   0.10312   0.71104   1.000
    O291    O    0.39555   0.03904   0.73201   1.000
    O292    O    0.49872   0.61610   0.71743   1.000
    O293    O    0.99872   0.61610   0.71746   1.000
    O294    O    0.99868   0.11608   0.71744   1.000
    O295    O    0.49868   0.11608   0.71744   1.000
    O296    O    0.58886   0.05461   0.73520   1.000
    O297    O    0.08885   0.05460   0.73522   1.000
    O298    O    0.58888   0.55462   0.73523   1.000
    O299    O    0.08887   0.55461   0.73524   1.000
    O300    O    0.32479   0.46723   0.73859   1.000
    O301    O    0.32481   0.96720   0.73863   1.000
    O302    O    0.82479   0.46724   0.73859   1.000
    O303    O    0.82482   0.96721   0.73863   1.000
    O304    O    0.67522   0.03286   0.76138   1.000
    O305    O    0.60448   0.96102   0.76801   1.000
    O306    O    0.66996   0.95231   0.79616   1.000
    O307    O    0.67528   0.53290   0.76135   1.000
    O308    O    0.60447   0.46103   0.76800   1.000
    O309    O    0.66998   0.45237   0.79613   1.000
    O310    O    0.17527   0.53289   0.76131   1.000
    O311    O    0.10446   0.46102   0.76800   1.000
    O312    O    0.16998   0.45237   0.79614   1.000
    O313    O    0.17521   0.03286   0.76140   1.000
    O314    O    0.10448   0.96102   0.76802   1.000
    O315    O    0.16995   0.95230   0.79617   1.000
    O316    O    0.91119   0.44551   0.76471   1.000
    O317    O    0.82534   0.53684   0.77871   1.000
    O318    O    0.83126   0.45049   0.80262   1.000
    O319    O    0.41119   0.44551   0.76471   1.000
    O320    O    0.32534   0.53684   0.77871   1.000
    O321    O    0.33125   0.45049   0.80262   1.000
    O322    O    0.41118   0.94546   0.76481   1.000
    O323    O    0.32527   0.03675   0.77882   1.000
    O324    O    0.33121   0.95043   0.80268   1.000
    O325    O    0.91118   0.94546   0.76481   1.000
    O326    O    0.82528   0.03675   0.77882   1.000
    O327    O    0.83121   0.95043   0.80268   1.000
    O328    O    0.21656   0.57925   0.78583   1.000
    O329    O    0.71656   0.57925   0.78584   1.000
    O330    O    0.21645   0.07918   0.78596   1.000
    O331    O    0.71646   0.07918   0.78593   1.000
    O332    O    0.00134   0.38402   0.78249   1.000
    O333    O    0.50134   0.38402   0.78249   1.000
    O334    O    0.00136   0.88399   0.78258   1.000
    O335    O    0.50136   0.88399   0.78258   1.000
    O336    O    0.04902   0.39696   0.78894   1.000
    O337    O    0.54902   0.39696   0.78894   1.000
    O338    O    0.04905   0.89695   0.78898   1.000
    O339    O    0.54906   0.89695   0.78898   1.000
    O340    O    0.76223   0.58576   0.80005   1.000
    O341    O    0.26222   0.58576   0.80009   1.000
    O342    O    0.76212   0.08567   0.80016   1.000
    O343    O    0.26211   0.08566   0.80020   1.000
    O344    O    0.72274   0.38950   0.86005   1.000
    O345    O    0.22273   0.38950   0.86006   1.000
    O346    O    0.72269   0.88940   0.86011   1.000
    O347    O    0.22268   0.88939   0.86011   1.000
    O348    O    0.77961   0.39019   0.86338   1.000
    O349    O    0.27961   0.39019   0.86338   1.000
    O350    O    0.27954   0.89011   0.86343   1.000
    O351    O    0.77955   0.89012   0.86343   1.000
    O352    O    0.22041   0.46974   0.23548   1.000
    O353    O    0.22038   0.46980   0.73543   1.000
    O354    O    0.22047   0.96981   0.23538   1.000
    O355    O    0.22041   0.96980   0.73545   1.000
    O356    O    0.72042   0.46974   0.23547   1.000
    O357    O    0.72039   0.46980   0.73543   1.000
    O358    O    0.72047   0.96981   0.23532   1.000
    O359    O    0.72042   0.96980   0.73543   1.000
    O360    O    0.27967   0.03027   0.26452   1.000
    O361    O    0.27961   0.03026   0.76459   1.000
    O362    O    0.27970   0.53026   0.26454   1.000
    O363    O    0.27968   0.53033   0.76446   1.000
    O364    O    0.77967   0.03028   0.26407   1.000
    O365    O    0.77962   0.03027   0.76459   1.000
    O366    O    0.77971   0.53027   0.26454   1.000
    O367    O    0.77968   0.53033   0.76450   1.000
    N368    N    0.37186   0.27371   0.69484   1.000
    O369    O    0.33505   0.32315   0.69729   1.000
    O370    O    0.40673   0.21930   0.69993   1.000
    N371    N    0.12818   0.72637   0.80510   1.000
    O372    O    0.09332   0.78078   0.80004   1.000
    O373    O    0.16500   0.67695   0.80264   1.000
    N374    N    0.87193   0.77375   0.69487   1.000
    O375    O    0.83511   0.82318   0.69730   1.000
    O376    O    0.90679   0.71933   0.69995   1.000
    N377    N    0.37196   0.77370   0.19487   1.000
    O378    O    0.40682   0.71928   0.19995   1.000
    O379    O    0.33515   0.82315   0.19727   1.000
    N380    N    0.75007   0.25009   0.99995   1.000
    O381    O    0.74968   0.20304   0.04642   1.000
    O382    O    0.75046   0.29713   0.95349   1.000
    N383    N    0.87197   0.77370   0.19486   1.000
    O384    O    0.83516   0.82315   0.19727   1.000
    O385    O    0.90682   0.71928   0.19995   1.000
    N386    N    0.62822   0.72636   0.30509   1.000
    O387    O    0.59336   0.78077   0.30001   1.000
    O388    O    0.66504   0.67692   0.30266   1.000
    N389    N    0.87187   0.27371   0.69483   1.000
    O390    O    0.90673   0.21930   0.69993   1.000
    O391    O    0.83506   0.32315   0.69728   1.000
    N392    N    0.25003   0.75002   0.49995   1.000
    O393    O    0.25043   0.79706   0.45348   1.000
    O394    O    0.24963   0.70299   0.54643   1.000
    N395    N    0.12816   0.22632   0.30510   1.000
    O396    O    0.09330   0.28073   0.30003   1.000
    O397    O    0.16497   0.17689   0.30267   1.000
    N398    N    0.62819   0.72637   0.80510   1.000
    O399    O    0.66501   0.67695   0.80265   1.000
    O400    O    0.59332   0.78078   0.80004   1.000
    N401    N    0.62813   0.22636   0.80510   1.000
    O402    O    0.66493   0.17692   0.80268   1.000
    O403    O    0.59327   0.28078   0.80002   1.000
    N404    N    0.12812   0.22636   0.80511   1.000
    O405    O    0.09326   0.28078   0.80003   1.000
    O406    O    0.16493   0.17691   0.80270   1.000
    N407    N    0.37192   0.77374   0.69488   1.000
    O408    O    0.33511   0.82318   0.69730   1.000
    O409    O    0.40678   0.71933   0.69993   1.000
    N410    N    0.25002   0.74999   0.00001   1.000
    O411    O    0.24963   0.70294   0.04648   1.000
    O412    O    0.25040   0.79704   0.95354   1.000
    N413    N    0.75005   0.25005   0.50002   1.000
    O414    O    0.75046   0.29709   0.45354   1.000
    O415    O    0.74965   0.20301   0.54649   1.000
    N416    N    0.75004   0.75003   0.49995   1.000
    O417    O    0.74964   0.70299   0.54643   1.000
    O418    O    0.75044   0.79706   0.45347   1.000
    N419    N    0.37190   0.27370   0.19486   1.000
    O420    O    0.33508   0.32312   0.19731   1.000
    O421    O    0.40677   0.21929   0.19992   1.000
    N422    N    0.25005   0.25005   0.49996   1.000
    O423    O    0.24965   0.20301   0.54632   1.000
    O424    O    0.25045   0.29708   0.45352   1.000
    N425    N    0.75003   0.74999   0.00001   1.000
    O426    O    0.74964   0.70295   0.04648   1.000
    O427    O    0.75041   0.79704   0.95354   1.000
    N428    N    0.87191   0.27370   0.19470   1.000
    O429    O    0.83509   0.32312   0.19723   1.000
    O430    O    0.90677   0.21929   0.19984   1.000
    N431    N    0.62817   0.22632   0.30510   1.000
    O432    O    0.66498   0.17689   0.30267   1.000
    O433    O    0.59331   0.28073   0.30003   1.000
    N434    N    0.25006   0.25008   0.99992   1.000
    O435    O    0.24967   0.20303   0.04641   1.000
    O436    O    0.25045   0.29713   0.95337   1.000
    N437    N    0.12822   0.72636   0.30509   1.000
    O438    O    0.09335   0.78077   0.30001   1.000
    O439    O    0.16504   0.67692   0.30244   1.000
loop_
    _geom_bond_atom_site_label_1
    _geom_bond_atom_site_label_2
    _geom_bond_distance
    _geom_bond_site_symmetry_2
    _ccdc_geom_bond_type
    Zr56   O160      0.63712      .   S
    Zr152  O160      0.63712      .   S
    Zr56   O161      0.64010      .   S
    Zr144  O161      0.64010      .   S
    Zr60   O162      0.63712      .   S
    Zr156  O162      0.63712      .   S
    Zr60   O163      0.64010      .   S
    Zr148  O163      0.64010      .   S
    Zr62   O164      0.63712      .   S
    Zr158  O164      0.63712      .   S
    Zr62   O165      0.64034      .   S
    Zr150  O165      0.64034      .   S
    Zr58   O166      0.63712      .   S
    Zr154  O166      0.63712      .   S
    Zr58   O167      0.64010      .   S
    Zr146  O167      0.64010      .   S
    Zr156  O168      1.21891      .   S
    Zr4    O168      1.21891      .   S
    Zr152  O169      1.21896      .   S
    Zr0    O169      1.21896      .   S
    Zr154  O170      1.21906      .   S
    Zr2    O170      1.21906      .   S
    Zr158  O171      1.21900      .   S
    Zr6    O171      1.21900      .   S
    Zr144  O172      1.21801      .   S
    Zr10   O172      1.21801  1_565   S
    Zr148  O173      1.21800      .   S
    Zr14   O173      1.21800  1_565   S
    Zr150  O174      1.21760      .   S
    Zr12   O174      1.21760      .   S
    Zr146  O175      1.21770      .   S
    Zr8    O175      1.21770      .   S
    Zr70   O176      0.63542      .   S
    Zr22   O176      0.63542      .   S
    Zr70   O177      1.24445      .   S
    Zr4    O177      1.24445  1_545   S
    Zr66   O178      0.63537      .   S
    Zr18   O178      0.63537      .   S
    Zr66   O179      1.24454      .   S
    Zr0    O179      1.24454  1_545   S
    Zr64   O180      0.63546      .   S
    Zr16   O180      0.63546      .   S
    Zr64   O181      1.24456      .   S
    Zr2    O181      1.24456      .   S
    Zr68   O182      0.63545      .   S
    Zr20   O182      0.63545      .   S
    Zr68   O183      1.24446      .   S
    Zr6    O183      1.24446      .   S
    Zr18   O184      0.64684      .   S
    Zr74   O184      0.64684      .   S
    Zr22   O185      0.64584      .   S
    Zr78   O185      0.64584      .   S
    Zr16   O186      0.64670      .   S
    Zr72   O186      0.64670      .   S
    Zr20   O187      0.64661      .   S
    Zr76   O187      0.64661      .   S
    Zr138  O188      0.63663      .   S
    Zr50   O188      0.63663      .   S
    Zr138  O189      1.21223      .   S
    Zr8    O189      1.21223      .   S
    Zr140  O190      0.63610      .   S
    Zr52   O190      0.63610      .   S
    Zr140  O191      1.21201      .   S
    Zr14   O191      1.21201  1_565   S
    Zr136  O192      0.63603      .   S
    Zr48   O192      0.63603      .   S
    Zr136  O193      1.21203      .   S
    Zr10   O193      1.21203  1_565   S
    Zr142  O194      0.63608      .   S
    Zr54   O194      0.63608      .   S
    Zr142  O195      1.21235      .   S
    Zr12   O195      1.21235      .   S
    Zr48   O196      0.63956      .   S
    Zr132  O196      0.63956      .   S
    Zr52   O197      0.63931      .   S
    Zr128  O197      0.63931  1_455   S
    Zr50   O198      0.63958      .   S
    Zr134  O198      0.63958      .   S
    Zr54   O199      0.63958      .   S
    Zr130  O199      0.63958  1_455   S
    Zr128  O200      1.21565      .   S
    Zr0    O200      1.21565      .   S
    Zr132  O201      1.21566      .   S
    Zr4    O201      1.21566      .   S
    Zr134  O202      1.21558      .   S
    Zr6    O202      1.21558      .   S
    Zr130  O203      1.21559      .   S
    Zr2    O203      1.21559      .   S
    Zr78   O204      1.23648      .   S
    Zr14   O204      1.23648      .   S
    Zr74   O205      1.23570      .   S
    Zr10   O205      1.23570      .   S
    Zr76   O206      1.23617      .   S
    Zr12   O206      1.23617      .   S
    Zr72   O207      1.23619      .   S
    Zr8    O207      1.23619      .   S
    Zr4    O208      1.22752      .   S
    Zr124  O208      1.22752      .   S
    Zr4    O209      1.21194  1_545   S
    Zr94   O209      1.21194      .   S
    Zr4    O210      1.21802  1_545   S
    Zr102  O210      1.21802      .   S
    Zr0    O211      1.23570      .   S
    Zr120  O211      1.23570      .   S
    Zr0    O212      1.21202  1_545   S
    Zr90   O212      1.21202      .   S
    Zr0    O213      1.21791  1_545   S
    Zr98   O213      1.21791      .   S
    Zr6    O214      1.23627      .   S
    Zr126  O214      1.23627      .   S
    Zr6    O215      1.21241      .   S
    Zr92   O215      1.21241      .   S
    Zr6    O216      1.21757      .   S
    Zr100  O216      1.21757      .   S
    Zr2    O217      1.23616      .   S
    Zr122  O217      1.23616      .   S
    Zr2    O218      1.21238      .   S
    Zr88   O218      1.21238      .   S
    Zr2    O219      1.21755      .   S
    Zr96   O219      1.21755      .   S
    Zr10   O220      1.21566      .   S
    Zr82   O220      1.21566      .   S
    Zr10   O221      1.24365  1_565   S
    Zr112  O221      1.24365      .   S
    Zr10   O222      1.21837      .   S
    Zr106  O222      1.21837      .   S
    Zr14   O223      1.21566      .   S
    Zr86   O223      1.21566      .   S
    Zr14   O224      1.24447  1_565   S
    Zr116  O224      1.24447      .   S
    Zr14   O225      1.21896      .   S
    Zr110  O225      1.21896      .   S
    Zr12   O226      1.21560      .   S
    Zr84   O226      1.21560      .   S
    Zr12   O227      1.24456      .   S
    Zr118  O227      1.24456      .   S
    Zr12   O228      1.21909      .   S
    Zr108  O228      1.21909      .   S
    Zr8    O229      1.21560      .   S
    Zr80   O229      1.21560      .   S
    Zr8    O230      1.24445      .   S
    Zr114  O230      1.24445      .   S
    Zr8    O231      1.21904      .   S
    Zr104  O231      1.21904      .   S
    Zr124  O232      0.65578      .   S
    Zr44   O232      0.65578      .   S
    Zr120  O233      0.64662      .   S
    Zr40   O233      0.64662      .   S
    Zr122  O234      0.63767      .   S
    Zr42   O234      0.63767      .   S
    Zr126  O235      0.64665      .   S
    Zr46   O235      0.64665      .   S
    Zr82   O236      0.63983      .   S
    Zr30   O236      0.63983      .   S
    Zr84   O237      0.63957  1_655   S
    Zr24   O237      0.63957      .   S
    Zr80   O238      0.63960      .   S
    Zr28   O238      0.63960      .   S
    Zr86   O239      0.63956  1_655   S
    Zr26   O239      0.63956      .   S
    Zr26   O240      0.63568      .   S
    Zr90   O240      0.63568      .   S
    Zr30   O241      0.63604      .   S
    Zr94   O241      0.63604      .   S
    Zr28   O242      0.63601      .   S
    Zr92   O242      0.63601      .   S
    Zr24   O243      0.63609      .   S
    Zr88   O243      0.63609      .   S
    Zr42   O244      0.63862      .   S
    Zr114  O244      0.63862      .   S
    Zr46   O245      0.63546      .   S
    Zr118  O245      0.63546      .   S
    Zr44   O246      0.63542      .   S
    Zr116  O246      0.63542      .   S
    Zr40   O247      0.63513      .   S
    Zr112  O247      0.63513      .   S
    Zr102  O248      0.63992      .   S
    Zr38   O248      0.63992      .   S
    Zr98   O249      0.64015      .   S
    Zr34   O249      0.64015      .   S
    Zr100  O250      0.64016      .   S
    Zr36   O250      0.64016      .   S
    Zr96   O251      0.64017      .   S
    Zr32   O251      0.64017      .   S
    Zr106  O252      0.63711      .   S
    Zr34   O252      0.63711      .   S
    Zr110  O253      0.63712      .   S
    Zr38   O253      0.63712      .   S
    Zr104  O254      0.63711      .   S
    Zr32   O254      0.63711      .   S
    Zr108  O255      0.63712      .   S
    Zr36   O255      0.63712      .   S
    Zr59   O256      0.63711      .   S
    Zr155  O256      0.63711      .   S
    Zr59   O257      0.64014      .   S
    Zr147  O257      0.64014      .   S
    Zr63   O258      0.63712      .   S
    Zr159  O258      0.63712      .   S
    Zr63   O259      0.64013      .   S
    Zr151  O259      0.64013      .   S
    Zr57   O260      0.63713      .   S
    Zr153  O260      0.63713      .   S
    Zr57   O261      0.64013      .   S
    Zr145  O261      0.64013      .   S
    Zr61   O262      0.63713      .   S
    Zr157  O262      0.63713      .   S
    Zr61   O263      0.64014      .   S
    Zr149  O263      0.64014      .   S
    Zr159  O264      1.21906      .   S
    Zr7    O264      1.21906      .   S
    Zr155  O265      1.21906      .   S
    Zr3    O265      1.21906      .   S
    Zr157  O266      1.21880      .   S
    Zr5    O266      1.21880      .   S
    Zr153  O267      1.21900      .   S
    Zr1    O267      1.21900      .   S
    Zr151  O268      1.21760      .   S
    Zr13   O268      1.21760      .   S
    Zr147  O269      1.21761      .   S
    Zr9    O269      1.21761      .   S
    Zr149  O270      1.21793      .   S
    Zr15   O270      1.21793  1_565   S
    Zr145  O271      1.21794      .   S
    Zr11   O271      1.21794  1_565   S
    Zr67   O272      0.63543      .   S
    Zr19   O272      0.63543      .   S
    Zr67   O273      1.24457      .   S
    Zr1    O273      1.24457  1_545   S
    Zr71   O274      0.63544      .   S
    Zr23   O274      0.63544      .   S
    Zr71   O275      1.24428      .   S
    Zr5    O275      1.24428  1_545   S
    Zr69   O276      0.63547      .   S
    Zr21   O276      0.63547      .   S
    Zr69   O277      1.24458      .   S
    Zr7    O277      1.24458      .   S
    Zr65   O278      0.63544      .   S
    Zr17   O278      0.63544      .   S
    Zr65   O279      1.24448      .   S
    Zr3    O279      1.24448      .   S
    Zr23   O280      0.64665      .   S
    Zr79   O280      0.64665      .   S
    Zr19   O281      0.64664      .   S
    Zr75   O281      0.64664      .   S
    Zr17   O282      0.64670      .   S
    Zr73   O282      0.64670      .   S
    Zr21   O283      0.64671      .   S
    Zr77   O283      0.64671      .   S
    Zr143  O284      0.63602      .   S
    Zr55   O284      0.63602      .   S
    Zr143  O285      1.21235      .   S
    Zr13   O285      1.21235      .   S
    Zr139  O286      0.63561      .   S
    Zr51   O286      0.63561      .   S
    Zr139  O287      1.21237      .   S
    Zr9    O287      1.21237      .   S
    Zr141  O288      0.63612      .   S
    Zr53   O288      0.63612      .   S
    Zr141  O289      1.21198      .   S
    Zr15   O289      1.21198  1_565   S
    Zr137  O290      0.63606      .   S
    Zr49   O290      0.63606      .   S
    Zr137  O291      1.21201      .   S
    Zr11   O291      1.21201  1_565   S
    Zr51   O292      0.63987      .   S
    Zr135  O292      0.63987      .   S
    Zr55   O293      0.63961      .   S
    Zr131  O293      0.63961  1_455   S
    Zr53   O294      0.63952      .   S
    Zr129  O294      0.63952  1_455   S
    Zr49   O295      0.63956      .   S
    Zr133  O295      0.63956      .   S
    Zr133  O296      1.21567      .   S
    Zr5    O296      1.21567      .   S
    Zr129  O297      1.21566      .   S
    Zr1    O297      1.21566      .   S
    Zr135  O298      1.21558      .   S
    Zr7    O298      1.21558      .   S
    Zr131  O299      1.21559      .   S
    Zr3    O299      1.21559      .   S
    Zr73   O300      1.23619      .   S
    Zr9    O300      1.23619      .   S
    Zr75   O301      1.23572      .   S
    Zr11   O301      1.23572      .   S
    Zr77   O302      1.23618      .   S
    Zr13   O302      1.23618      .   S
    Zr79   O303      1.23571      .   S
    Zr15   O303      1.23571      .   S
    Zr5    O304      1.23591      .   S
    Zr125  O304      1.23591      .   S
    Zr5    O305      1.21195  1_545   S
    Zr95   O305      1.21195      .   S
    Zr5    O306      1.21826  1_545   S
    Zr103  O306      1.21826      .   S
    Zr7    O307      1.23619      .   S
    Zr127  O307      1.23619      .   S
    Zr7    O308      1.21240      .   S
    Zr93   O308      1.21240      .   S
    Zr7    O309      1.21757      .   S
    Zr101  O309      1.21757      .   S
    Zr3    O310      1.23543      .   S
    Zr123  O310      1.23543      .   S
    Zr3    O311      1.21239      .   S
    Zr89   O311      1.21239      .   S
    Zr3    O312      1.21764      .   S
    Zr97   O312      1.21764      .   S
    Zr1    O313      1.23564      .   S
    Zr121  O313      1.23564      .   S
    Zr1    O314      1.21193  1_545   S
    Zr91   O314      1.21193      .   S
    Zr1    O315      1.21799  1_545   S
    Zr99   O315      1.21799      .   S
    Zr13   O316      1.21559      .   S
    Zr85   O316      1.21559      .   S
    Zr13   O317      1.24452      .   S
    Zr119  O317      1.24452      .   S
    Zr13   O318      1.21903      .   S
    Zr109  O318      1.21903      .   S
    Zr9    O319      1.21559      .   S
    Zr81   O319      1.21559      .   S
    Zr9    O320      1.24454      .   S
    Zr115  O320      1.24454      .   S
    Zr9    O321      1.21904      .   S
    Zr105  O321      1.21904      .   S
    Zr11   O322      1.21566      .   S
    Zr83   O322      1.21566      .   S
    Zr11   O323      1.24455  1_565   S
    Zr113  O323      1.24455      .   S
    Zr11   O324      1.21894      .   S
    Zr107  O324      1.21894      .   S
    Zr15   O325      1.21566      .   S
    Zr87   O325      1.21566      .   S
    Zr15   O326      1.24444  1_565   S
    Zr117  O326      1.24444      .   S
    Zr15   O327      1.21893      .   S
    Zr111  O327      1.21893      .   S
    Zr123  O328      0.64757      .   S
    Zr43   O328      0.64757      .   S
    Zr127  O329      0.64603      .   S
    Zr47   O329      0.64603      .   S
    Zr121  O330      0.64671      .   S
    Zr41   O330      0.64671      .   S
    Zr125  O331      0.64612      .   S
    Zr45   O331      0.64612      .   S
    Zr85   O332      0.63954  1_655   S
    Zr25   O332      0.63954      .   S
    Zr81   O333      0.63957      .   S
    Zr29   O333      0.63957      .   S
    Zr87   O334      0.63953  1_655   S
    Zr27   O334      0.63953      .   S
    Zr83   O335      0.63956      .   S
    Zr31   O335      0.63956      .   S
    Zr25   O336      0.63606      .   S
    Zr89   O336      0.63606      .   S
    Zr29   O337      0.63608      .   S
    Zr93   O337      0.63608      .   S
    Zr27   O338      0.63610      .   S
    Zr91   O338      0.63610      .   S
    Zr31   O339      0.63608      .   S
    Zr95   O339      0.63608      .   S
    Zr47   O340      0.63568      .   S
    Zr119  O340      0.63568      .   S
    Zr43   O341      0.63544      .   S
    Zr115  O341      0.63544      .   S
    Zr45   O342      0.63560      .   S
    Zr117  O342      0.63560      .   S
    Zr41   O343      0.63542      .   S
    Zr113  O343      0.63542      .   S
    Zr101  O344      0.64020      .   S
    Zr37   O344      0.64020      .   S
    Zr97   O345      0.64013      .   S
    Zr33   O345      0.64013      .   S
    Zr103  O346      0.64011      .   S
    Zr39   O346      0.64011      .   S
    Zr99   O347      0.64011      .   S
    Zr35   O347      0.64011      .   S
    Zr109  O348      0.63711      .   S
    Zr37   O348      0.63711      .   S
    Zr105  O349      0.63711      .   S
    Zr33   O349      0.63711      .   S
    Zr107  O350      0.63713      .   S
    Zr35   O350      0.63713      .   S
    Zr111  O351      0.63713      .   S
    Zr39   O351      0.63713      .   S
    Zr72   O352      1.39874      .   S
    Zr2    O352      1.39874      .   S
    Zr73   O353      1.39870      .   S
    Zr3    O353      1.39870      .   S
    Zr74   O354      1.39940      .   S
    Zr0    O354      1.39940  1_545   S
    Zr75   O355      1.39933      .   S
    Zr1    O355      1.39933  1_545   S
    Zr76   O356      1.39877      .   S
    Zr6    O356      1.39877      .   S
    Zr77   O357      1.39874      .   S
    Zr7    O357      1.39874      .   S
    Zr78   O358      1.39967      .   S
    Zr4    O358      1.39967  1_545   S
    Zr79   O359      1.39927      .   S
    Zr5    O359      1.39927  1_545   S
    Zr120  O360      1.39936      .   S
    Zr10   O360      1.39936  1_565   S
    Zr121  O361      1.39942      .   S
    Zr11   O361      1.39942  1_565   S
    Zr122  O362      1.39870      .   S
    Zr8    O362      1.39870      .   S
    Zr123  O363      1.39849      .   S
    Zr9    O363      1.39849      .   S
    Zr124  O364      1.39681      .   S
    Zr14   O364      1.39681  1_565   S
    Zr125  O365      1.39939      .   S
    Zr15   O365      1.39939  1_565   S
    Zr126  O366      1.39868      .   S
    Zr12   O366      1.39868      .   S
    Zr127  O367      1.39869      .   S
    Zr13   O367      1.39869      .   S
    N368   O369      1.07170      .   S
    Zr17   O369      1.81482      .   S
    N368   O370      1.07389      .   S
    Zr49   O370      1.82251      .   S
    N371   O372      1.07411      .   S
    Zr27   O372      1.82269      .   S
    N371   O373      1.07163      .   S
    Zr43   O373      1.81426      .   S
    N374   O375      1.07143      .   S
    Zr23   O375      1.81452      .   S
    N374   O376      1.07402      .   S
    Zr55   O376      1.82263      .   S
    N377   O378      1.07404      .   S
    Zr50   O378      1.82263      .   S
    N377   O379      1.07134      .   S
    Zr18   O379      1.81432      .   S
    N380   O381      1.07518  1_556   S
    Zr60   O381      1.82387      .   S
    N380   O382      1.07510      .   S
    Zr37   O382      1.82367      .   S
    N383   O384      1.07141      .   S
    Zr22   O384      1.81451      .   S
    N383   O385      1.07399      .   S
    Zr54   O385      1.82259      .   S
    N386   O387      1.07410      .   S
    Zr30   O387      1.82271      .   S
    N386   O388      1.07144      .   S
    Zr46   O388      1.81459      .   S
    N389   O390      1.07388      .   S
    Zr53   O390      1.82249      .   S
    N389   O391      1.07172      .   S
    Zr21   O391      1.81483      .   S
    N392   O393      1.07517      .   S
    Zr34   O393      1.82382      .   S
    N392   O394      1.07517      .   S
    Zr59   O394      1.82381      .   S
    N395   O396      1.07404      .   S
    Zr24   O396      1.82263      .   S
    N395   O397      1.07138      .   S
    Zr40   O397      1.81449      .   S
    N398   O399      1.07163      .   S
    Zr47   O399      1.81513      .   S
    N398   O400      1.07407      .   S
    Zr31   O400      1.82269      .   S
    N401   O402      1.07148      .   S
    Zr45   O402      1.81491      .   S
    N401   O403      1.07406      .   S
    Zr29   O403      1.82263      .   S
    N404   O405      1.07403      .   S
    Zr25   O405      1.82261      .   S
    N404   O406      1.07137      .   S
    Zr41   O406      1.81447      .   S
    N407   O408      1.07138      .   S
    Zr19   O408      1.81448      .   S
    N407   O409      1.07417      .   S
    Zr51   O409      1.82296      .   S
    N410   O411      1.07516      .   S
    Zr58   O411      1.82383      .   S
    N410   O412      1.07514  1_554   S
    Zr35   O412      1.82381      .   S
    N413   O414      1.07518      .   S
    Zr36   O414      1.82380      .   S
    N413   O415      1.07517      .   S
    Zr61   O415      1.82383      .   S
    N416   O417      1.07519      .   S
    Zr63   O417      1.82384      .   S
    N416   O418      1.07527      .   S
    Zr38   O418      1.82414      .   S
    N419   O420      1.07150      .   S
    Zr16   O420      1.81460      .   S
    N419   O421      1.07404      .   S
    Zr48   O421      1.82267      .   S
    N422   O423      1.07326      .   S
    Zr57   O423      1.82664      .   S
    N422   O424      1.07466      .   S
    Zr32   O424      1.82328      .   S
    N425   O426      1.07507      .   S
    Zr62   O426      1.82348      .   S
    N425   O427      1.07515  1_554   S
    Zr39   O427      1.82373      .   S
    N428   O429      1.07237      .   S
    Zr20   O429      1.81557      .   S
    N428   O430      1.07342      .   S
    Zr52   O430      1.82208      .   S
    N431   O432      1.07139      .   S
    Zr44   O432      1.81447      .   S
    N431   O433      1.07404      .   S
    Zr28   O433      1.82263      .   S
    N434   O435      1.07548  1_556   S
    Zr56   O435      1.82409      .   S
    N434   O436      1.07640      .   S
    Zr33   O436      1.82186      .   S
    N437   O438      1.07409      .   S
    Zr26   O438      1.82272      .   S
    N437   O439      1.07391      .   S
    Zr42   O439      1.82242      .   S
