# CIF file generated by openbabel 2.4.90, see http://openbabel.sf.net
data_I
_chemical_name_common ''
_cell_length_a 19.314
_cell_length_b 21.4
_cell_length_c 26.004
_cell_angle_alpha 57.185
_cell_angle_beta 75.071
_cell_angle_gamma 69.375
_space_group_name_H-M_alt 'P 1'
_space_group_name_Hall 'P 1'
loop_
    _symmetry_equiv_pos_as_xyz
    x,y,z
loop_
    _atom_site_label
    _atom_site_type_symbol
    _atom_site_fract_x
    _atom_site_fract_y
    _atom_site_fract_z
    _atom_site_occupancy
    C0      C    0.14567   0.00264   0.24676   1.000
    C1      C    0.14562   0.00262   0.74683   1.000
    C2      C    0.14565   0.50257   0.24686   1.000
    C3      C    0.14563   0.50263   0.74681   1.000
    C4      C    0.64567   0.00264   0.24675   1.000
    C5      C    0.64562   0.00263   0.74680   1.000
    C6      C    0.64566   0.50257   0.24685   1.000
    C7      C    0.64563   0.50264   0.74681   1.000
    C8      C    0.35446   0.49743   0.25317   1.000
    C9      C    0.35444   0.49750   0.75312   1.000
    C10     C    0.35447   0.99744   0.25314   1.000
    C11     C    0.35441   0.99743   0.75321   1.000
    C12     C    0.85446   0.49744   0.25316   1.000
    C13     C    0.85444   0.49750   0.75312   1.000
    C14     C    0.85447   0.99745   0.25314   1.000
    C15     C    0.85442   0.99744   0.75321   1.000
    C16     C    0.23930   0.31524   0.17550   1.000
    C17     C    0.23927   0.31526   0.67555   1.000
    C18     C    0.23938   0.81528   0.17549   1.000
    C19     C    0.23934   0.81531   0.67551   1.000
    C20     C    0.73931   0.31525   0.17554   1.000
    C21     C    0.73928   0.31526   0.67555   1.000
    C22     C    0.73939   0.81528   0.17549   1.000
    C23     C    0.73934   0.81532   0.67551   1.000
    C24     C    0.32259   0.19396   0.17797   1.000
    C25     C    0.32255   0.19396   0.67801   1.000
    C26     C    0.32265   0.69395   0.17799   1.000
    C27     C    0.32262   0.69401   0.67797   1.000
    C28     C    0.82260   0.19397   0.17790   1.000
    C29     C    0.82256   0.19396   0.67801   1.000
    C30     C    0.82266   0.69395   0.17799   1.000
    C31     C    0.82263   0.69401   0.67797   1.000
    C32     C    0.00484   0.23368   0.21196   1.000
    C33     C    0.00480   0.23369   0.71198   1.000
    C34     C    0.00489   0.73365   0.21201   1.000
    C35     C    0.00485   0.73370   0.71201   1.000
    C36     C    0.50483   0.23368   0.21196   1.000
    C37     C    0.50480   0.23369   0.71190   1.000
    C38     C    0.50488   0.73365   0.21201   1.000
    C39     C    0.50484   0.73370   0.71201   1.000
    C40     C    0.42170   0.35345   0.21141   1.000
    C41     C    0.42167   0.35349   0.71100   1.000
    C42     C    0.42176   0.85348   0.21139   1.000
    C43     C    0.42171   0.85350   0.71143   1.000
    C44     C    0.92171   0.35346   0.21141   1.000
    C45     C    0.92168   0.35349   0.71139   1.000
    C46     C    0.92177   0.85348   0.21130   1.000
    C47     C    0.92172   0.85350   0.71142   1.000
    C48     C    0.35839   0.30634   0.45243   1.000
    C49     C    0.35838   0.30641   0.95236   1.000
    C50     C    0.35837   0.80632   0.45235   1.000
    C51     C    0.35834   0.80632   0.95241   1.000
    C52     C    0.85839   0.30635   0.45240   1.000
    C53     C    0.85839   0.30641   0.95236   1.000
    C54     C    0.85838   0.80632   0.45235   1.000
    C55     C    0.85835   0.80632   0.95240   1.000
    C56     C    0.14257   0.30370   0.43900   1.000
    C57     C    0.14257   0.30373   0.93896   1.000
    C58     C    0.14255   0.80367   0.43894   1.000
    C59     C    0.14252   0.80364   0.93902   1.000
    C60     C    0.64258   0.30370   0.43900   1.000
    C61     C    0.64258   0.30373   0.93896   1.000
    C62     C    0.64256   0.80368   0.43894   1.000
    C63     C    0.64253   0.80364   0.93902   1.000
    C64     C    0.26075   0.18475   0.32446   1.000
    C65     C    0.26070   0.18478   0.82448   1.000
    C66     C    0.26081   0.68481   0.32443   1.000
    C67     C    0.26078   0.68483   0.82443   1.000
    C68     C    0.76075   0.18475   0.32446   1.000
    C69     C    0.76071   0.18479   0.82448   1.000
    C70     C    0.76081   0.68481   0.32442   1.000
    C71     C    0.76078   0.68483   0.82443   1.000
    C72     C    0.17747   0.30605   0.32200   1.000
    C73     C    0.17743   0.30611   0.82199   1.000
    C74     C    0.17753   0.80611   0.32196   1.000
    C75     C    0.17748   0.80611   0.82201   1.000
    C76     C    0.67747   0.30605   0.32200   1.000
    C77     C    0.67744   0.30611   0.82198   1.000
    C78     C    0.67753   0.80612   0.32196   1.000
    C79     C    0.67749   0.80611   0.82200   1.000
    C80     C    0.49524   0.26636   0.28797   1.000
    C81     C    0.49520   0.26641   0.78790   1.000
    C82     C    0.49529   0.76638   0.28799   1.000
    C83     C    0.49526   0.76639   0.78801   1.000
    C84     C    0.99524   0.26636   0.28797   1.000
    C85     C    0.99520   0.26641   0.78798   1.000
    C86     C    0.99529   0.76638   0.28799   1.000
    C87     C    0.99525   0.76639   0.78801   1.000
    C88     C    0.07836   0.14656   0.28855   1.000
    C89     C    0.07831   0.14659   0.78859   1.000
    C90     C    0.07841   0.64658   0.28858   1.000
    C91     C    0.07838   0.64661   0.78857   1.000
    C92     C    0.57837   0.14657   0.28855   1.000
    C93     C    0.57832   0.14659   0.78859   1.000
    C94     C    0.57842   0.64658   0.28858   1.000
    C95     C    0.57839   0.64661   0.78857   1.000
    C96     C    0.14174   0.19375   0.04756   1.000
    C97     C    0.14171   0.19375   0.54761   1.000
    C98     C    0.14169   0.69366   0.04762   1.000
    C99     C    0.14169   0.69373   0.54756   1.000
    C100    C    0.64175   0.19375   0.04750   1.000
    C101    C    0.64172   0.19375   0.54761   1.000
    C102    C    0.64170   0.69367   0.04762   1.000
    C103    C    0.64170   0.69373   0.54755   1.000
    C104    C    0.35755   0.19643   0.06096   1.000
    C105    C    0.35752   0.19640   0.56104   1.000
    C106    C    0.35752   0.69634   0.06100   1.000
    C107    C    0.35752   0.69637   0.56097   1.000
    C108    C    0.85756   0.19644   0.06096   1.000
    C109    C    0.85753   0.19640   0.56104   1.000
    C110    C    0.85753   0.69634   0.06100   1.000
    C111    C    0.85752   0.69638   0.56096   1.000
    C112    C    0.27189   0.40473   0.20411   1.000
    C113    C    0.27187   0.40478   0.70408   1.000
    C114    C    0.27198   0.90480   0.20400   1.000
    C115    C    0.27193   0.90481   0.70407   1.000
    C116    C    0.77190   0.40473   0.20411   1.000
    C117    C    0.77187   0.40478   0.70408   1.000
    C118    C    0.77199   0.90480   0.20401   1.000
    C119    C    0.77194   0.90481   0.70407   1.000
    C120    C    0.32463   0.34036   0.19540   1.000
    C121    C    0.32460   0.34039   0.69539   1.000
    C122    C    0.32471   0.84039   0.19535   1.000
    C123    C    0.32466   0.84041   0.69538   1.000
    C124    C    0.82464   0.34036   0.19539   1.000
    C125    C    0.82461   0.34039   0.69539   1.000
    C126    C    0.82471   0.84039   0.19534   1.000
    C127    C    0.82466   0.84042   0.69538   1.000
    C128    C    0.29757   0.29675   0.18362   1.000
    C129    C    0.29754   0.29676   0.68363   1.000
    C130    C    0.29764   0.79677   0.18359   1.000
    C131    C    0.29760   0.79681   0.68360   1.000
    C132    C    0.79758   0.29675   0.18360   1.000
    C133    C    0.79755   0.29677   0.68363   1.000
    C134    C    0.79765   0.79677   0.18358   1.000
    C135    C    0.79761   0.79681   0.68360   1.000
    C136    C    0.34386   0.22899   0.18540   1.000
    C137    C    0.34382   0.22900   0.68550   1.000
    C138    C    0.34392   0.72899   0.18547   1.000
    C139    C    0.34388   0.72904   0.68547   1.000
    C140    C    0.84386   0.22900   0.18546   1.000
    C141    C    0.84382   0.22900   0.68500   1.000
    C142    C    0.84392   0.72899   0.18547   1.000
    C143    C    0.84389   0.72904   0.68540   1.000
    C144    C    0.41795   0.20420   0.19876   1.000
    C145    C    0.41792   0.20420   0.69879   1.000
    C146    C    0.41800   0.70418   0.19879   1.000
    C147    C    0.41797   0.70423   0.69878   1.000
    C148    C    0.91796   0.20420   0.19875   1.000
    C149    C    0.91792   0.20420   0.69879   1.000
    C150    C    0.91801   0.70418   0.19879   1.000
    C151    C    0.91797   0.70424   0.69878   1.000
    C152    C    0.44643   0.25160   0.20480   1.000
    C153    C    0.44639   0.25162   0.70482   1.000
    C154    C    0.44648   0.75159   0.20482   1.000
    C155    C    0.44644   0.75164   0.70483   1.000
    C156    C    0.94644   0.25161   0.20400   1.000
    C157    C    0.94640   0.25162   0.70482   1.000
    C158    C    0.94649   0.75159   0.20482   1.000
    C159    C    0.94645   0.75164   0.70483   1.000
    C160    C    0.40011   0.31873   0.20380   1.000
    C161    C    0.40008   0.31876   0.70380   1.000
    C162    C    0.40018   0.81874   0.20378   1.000
    C163    C    0.40013   0.81878   0.70381   1.000
    C164    C    0.90012   0.31873   0.20300   1.000
    C165    C    0.90009   0.31876   0.70379   1.000
    C166    C    0.90018   0.81875   0.20378   1.000
    C167    C    0.90014   0.81878   0.70381   1.000
    C168    C    0.03477   0.37445   0.28872   1.000
    C169    C    0.03474   0.37451   0.78869   1.000
    C170    C    0.03481   0.87450   0.28870   1.000
    C171    C    0.03477   0.87449   0.78875   1.000
    C172    C    0.53477   0.37445   0.28872   1.000
    C173    C    0.53474   0.37452   0.78869   1.000
    C174    C    0.53482   0.87450   0.28870   1.000
    C175    C    0.53477   0.87450   0.78875   1.000
    C176    C    0.25116   0.37683   0.37470   1.000
    C177    C    0.25114   0.37689   0.87465   1.000
    C178    C    0.25114   0.87681   0.37463   1.000
    C179    C    0.25108   0.87680   0.87470   1.000
    C180    C    0.75117   0.37684   0.37469   1.000
    C181    C    0.75115   0.37690   0.87465   1.000
    C182    C    0.75114   0.87682   0.37460   1.000
    C183    C    0.75109   0.87681   0.87470   1.000
    C184    C    0.25054   0.31141   0.43945   1.000
    C185    C    0.25054   0.31146   0.93900   1.000
    C186    C    0.25053   0.81138   0.43938   1.000
    C187    C    0.25050   0.81136   0.93945   1.000
    C188    C    0.75055   0.31141   0.43944   1.000
    C189    C    0.75055   0.31146   0.93939   1.000
    C190    C    0.75053   0.81138   0.43938   1.000
    C191    C    0.75050   0.81137   0.93944   1.000
    C192    C    0.31127   0.28123   0.47377   1.000
    C193    C    0.31128   0.28129   0.97371   1.000
    C194    C    0.31126   0.78121   0.47370   1.000
    C195    C    0.31124   0.78119   0.97376   1.000
    C196    C    0.81128   0.28124   0.47377   1.000
    C197    C    0.81129   0.28129   0.97371   1.000
    C198    C    0.81127   0.78121   0.47370   1.000
    C199    C    0.81124   0.78120   0.97375   1.000
    C200    C    0.18931   0.27973   0.46615   1.000
    C201    C    0.18932   0.27977   0.96610   1.000
    C202    C    0.18930   0.77971   0.46609   1.000
    C203    C    0.18927   0.77967   0.96616   1.000
    C204    C    0.68932   0.27974   0.46615   1.000
    C205    C    0.68932   0.27977   0.96610   1.000
    C206    C    0.68931   0.77971   0.46608   1.000
    C207    C    0.68928   0.77968   0.96616   1.000
    C208    C    0.22815   0.09526   0.29590   1.000
    C209    C    0.22809   0.09527   0.79596   1.000
    C210    C    0.22822   0.59529   0.29500   1.000
    C211    C    0.22819   0.59534   0.79587   1.000
    C212    C    0.72816   0.09526   0.29590   1.000
    C213    C    0.72810   0.09527   0.79590   1.000
    C214    C    0.72823   0.59530   0.29589   1.000
    C215    C    0.72820   0.59534   0.79580   1.000
    C216    C    0.17542   0.15965   0.30460   1.000
    C217    C    0.17537   0.15968   0.80463   1.000
    C218    C    0.17548   0.65968   0.30459   1.000
    C219    C    0.17545   0.65971   0.80450   1.000
    C220    C    0.67543   0.15965   0.30459   1.000
    C221    C    0.67538   0.15968   0.80463   1.000
    C222    C    0.67549   0.65968   0.30459   1.000
    C223    C    0.67546   0.65971   0.80458   1.000
    C224    C    0.20248   0.20325   0.31638   1.000
    C225    C    0.20244   0.20329   0.81639   1.000
    C226    C    0.20254   0.70331   0.31635   1.000
    C227    C    0.20251   0.70332   0.81636   1.000
    C228    C    0.70249   0.20326   0.31637   1.000
    C229    C    0.70245   0.20329   0.81639   1.000
    C230    C    0.70255   0.70331   0.31634   1.000
    C231    C    0.70252   0.70332   0.81636   1.000
    C232    C    0.15620   0.27102   0.31451   1.000
    C233    C    0.15617   0.27107   0.81450   1.000
    C234    C    0.15626   0.77107   0.31448   1.000
    C235    C    0.15622   0.77108   0.81451   1.000
    C236    C    0.65621   0.27102   0.31451   1.000
    C237    C    0.65617   0.27107   0.81450   1.000
    C238    C    0.65627   0.77108   0.31447   1.000
    C239    C    0.65623   0.77108   0.81451   1.000
    C240    C    0.08211   0.29583   0.30120   1.000
    C241    C    0.08208   0.29588   0.80119   1.000
    C242    C    0.08217   0.79587   0.30118   1.000
    C243    C    0.08213   0.79587   0.80122   1.000
    C244    C    0.58212   0.29583   0.30120   1.000
    C245    C    0.58208   0.29588   0.80119   1.000
    C246    C    0.58217   0.79587   0.30118   1.000
    C247    C    0.58213   0.79588   0.80121   1.000
    C248    C    0.05364   0.24842   0.29515   1.000
    C249    C    0.05360   0.24847   0.79516   1.000
    C250    C    0.05369   0.74845   0.29516   1.000
    C251    C    0.05365   0.74846   0.79518   1.000
    C252    C    0.55364   0.24842   0.29515   1.000
    C253    C    0.55360   0.24847   0.79516   1.000
    C254    C    0.55370   0.74845   0.29516   1.000
    C255    C    0.55366   0.74847   0.79518   1.000
    C256    C    0.09995   0.18129   0.29617   1.000
    C257    C    0.09990   0.18132   0.79620   1.000
    C258    C    0.10000   0.68131   0.29618   1.000
    C259    C    0.09997   0.68133   0.79618   1.000
    C260    C    0.59995   0.18129   0.29617   1.000
    C261    C    0.59990   0.18132   0.79620   1.000
    C262    C    0.60001   0.68131   0.29618   1.000
    C263    C    0.59998   0.68134   0.79618   1.000
    C264    C    0.46532   0.12558   0.21121   1.000
    C265    C    0.46527   0.12557   0.71127   1.000
    C266    C    0.46535   0.62555   0.21129   1.000
    C267    C    0.46532   0.62561   0.71120   1.000
    C268    C    0.96532   0.12558   0.21121   1.000
    C269    C    0.96528   0.12558   0.71127   1.000
    C270    C    0.96535   0.62555   0.21129   1.000
    C271    C    0.96532   0.62561   0.71126   1.000
    C272    C    0.24899   0.12326   0.12527   1.000
    C273    C    0.24894   0.12325   0.62534   1.000
    C274    C    0.24895   0.62318   0.12533   1.000
    C275    C    0.24893   0.62324   0.62528   1.000
    C276    C    0.74900   0.12326   0.12527   1.000
    C277    C    0.74895   0.12326   0.62534   1.000
    C278    C    0.74896   0.62318   0.12530   1.000
    C279    C    0.74893   0.62324   0.62528   1.000
    C280    C    0.24958   0.18871   0.06053   1.000
    C281    C    0.24955   0.18869   0.56000   1.000
    C282    C    0.24954   0.68862   0.06058   1.000
    C283    C    0.24954   0.68866   0.56053   1.000
    C284    C    0.74959   0.18871   0.06052   1.000
    C285    C    0.74956   0.18869   0.56059   1.000
    C286    C    0.74955   0.68862   0.06058   1.000
    C287    C    0.74955   0.68867   0.56053   1.000
    C288    C    0.18884   0.21888   0.02621   1.000
    C289    C    0.18882   0.21886   0.52627   1.000
    C290    C    0.18880   0.71879   0.02627   1.000
    C291    C    0.18880   0.71884   0.52621   1.000
    C292    C    0.68885   0.21888   0.02621   1.000
    C293    C    0.68883   0.21887   0.52627   1.000
    C294    C    0.68881   0.71879   0.02627   1.000
    C295    C    0.68881   0.71884   0.52621   1.000
    C296    C    0.31080   0.22040   0.03382   1.000
    C297    C    0.31078   0.22037   0.53389   1.000
    C298    C    0.31076   0.72030   0.03387   1.000
    C299    C    0.31077   0.72034   0.53382   1.000
    C300    C    0.81081   0.22040   0.03382   1.000
    C301    C    0.81078   0.22037   0.53389   1.000
    C302    C    0.81077   0.72030   0.03386   1.000
    C303    C    0.81078   0.72034   0.53382   1.000
    C304    C    0.20384   0.42390   0.19566   1.000
    C305    C    0.20382   0.42395   0.69563   1.000
    C306    C    0.20394   0.92400   0.19554   1.000
    C307    C    0.20389   0.92400   0.69559   1.000
    C308    C    0.70385   0.42390   0.19566   1.000
    C309    C    0.70383   0.42395   0.69562   1.000
    C310    C    0.70395   0.92400   0.19554   1.000
    C311    C    0.70390   0.92401   0.69559   1.000
    C312    C    0.29517   0.43691   0.22410   1.000
    C313    C    0.29514   0.43697   0.72406   1.000
    C314    C    0.29527   0.93698   0.22399   1.000
    C315    C    0.29521   0.93697   0.72406   1.000
    C316    C    0.79518   0.43691   0.22409   1.000
    C317    C    0.79515   0.43697   0.72406   1.000
    C318    C    0.79528   0.93699   0.22390   1.000
    C319    C    0.79522   0.93698   0.72406   1.000
    C320    C    0.46797   0.39346   0.27633   1.000
    C321    C    0.46794   0.39353   0.77630   1.000
    C322    C    0.46800   0.89349   0.27630   1.000
    C323    C    0.46795   0.89349   0.77641   1.000
    C324    C    0.96796   0.39346   0.27633   1.000
    C325    C    0.96794   0.39352   0.77630   1.000
    C326    C    0.96800   0.89349   0.27635   1.000
    C327    C    0.96795   0.89348   0.77641   1.000
    C328    C    0.06332   0.41935   0.28923   1.000
    C329    C    0.06330   0.41941   0.78919   1.000
    C330    C    0.06339   0.91942   0.28910   1.000
    C331    C    0.06334   0.91941   0.78922   1.000
    C332    C    0.56333   0.41935   0.28922   1.000
    C333    C    0.56330   0.41941   0.78919   1.000
    C334    C    0.56339   0.91942   0.28915   1.000
    C335    C    0.56334   0.91941   0.78922   1.000
    C336    C    0.19436   0.40204   0.34551   1.000
    C337    C    0.19433   0.40210   0.84547   1.000
    C338    C    0.19434   0.90200   0.34544   1.000
    C339    C    0.19428   0.90199   0.84552   1.000
    C340    C    0.69436   0.40205   0.34550   1.000
    C341    C    0.69434   0.40211   0.84546   1.000
    C342    C    0.69434   0.90200   0.34544   1.000
    C343    C    0.69429   0.90199   0.84552   1.000
    C344    C    0.30810   0.40341   0.35216   1.000
    C345    C    0.30807   0.40348   0.85211   1.000
    C346    C    0.30806   0.90342   0.35200   1.000
    C347    C    0.30800   0.90342   0.85216   1.000
    C348    C    0.80811   0.40342   0.35216   1.000
    C349    C    0.80808   0.40349   0.85211   1.000
    C350    C    0.80806   0.90343   0.35209   1.000
    C351    C    0.80801   0.90343   0.85216   1.000
    C352    C    0.29619   0.07605   0.30430   1.000
    C353    C    0.29613   0.07606   0.80444   1.000
    C354    C    0.29627   0.57613   0.30434   1.000
    C355    C    0.29624   0.57618   0.80431   1.000
    C356    C    0.79620   0.07606   0.30438   1.000
    C357    C    0.79614   0.07607   0.80443   1.000
    C358    C    0.79628   0.57613   0.30434   1.000
    C359    C    0.79625   0.57618   0.80431   1.000
    C360    C    0.20487   0.06310   0.27590   1.000
    C361    C    0.20481   0.06309   0.77597   1.000
    C362    C    0.20495   0.56310   0.27592   1.000
    C363    C    0.20492   0.56315   0.77580   1.000
    C364    C    0.70488   0.06311   0.27500   1.000
    C365    C    0.70482   0.06310   0.77597   1.000
    C366    C    0.70496   0.56310   0.27592   1.000
    C367    C    0.70493   0.56316   0.77588   1.000
    C368    C    0.03214   0.10659   0.22350   1.000
    C369    C    0.03209   0.10658   0.72361   1.000
    C370    C    0.03214   0.60653   0.22370   1.000
    C371    C    0.03212   0.60659   0.72367   1.000
    C372    C    0.53214   0.10659   0.22355   1.000
    C373    C    0.53209   0.10658   0.72361   1.000
    C374    C    0.53214   0.60653   0.22369   1.000
    C375    C    0.53212   0.60659   0.72366   1.000
    C376    C    0.43675   0.08067   0.21074   1.000
    C377    C    0.43669   0.08066   0.71081   1.000
    C378    C    0.43679   0.58065   0.21070   1.000
    C379    C    0.43676   0.58072   0.71075   1.000
    C380    C    0.93675   0.08067   0.21073   1.000
    C381    C    0.93670   0.08066   0.71080   1.000
    C382    C    0.93680   0.58065   0.21078   1.000
    C383    C    0.93677   0.58072   0.71075   1.000
    C384    C    0.30579   0.09808   0.15445   1.000
    C385    C    0.30574   0.09807   0.65453   1.000
    C386    C    0.30577   0.59796   0.15450   1.000
    C387    C    0.30574   0.59802   0.65446   1.000
    C388    C    0.80580   0.09808   0.15445   1.000
    C389    C    0.80575   0.09807   0.65453   1.000
    C390    C    0.80578   0.59797   0.15450   1.000
    C391    C    0.80575   0.59803   0.65446   1.000
    C392    C    0.19208   0.09664   0.14780   1.000
    C393    C    0.19202   0.09664   0.64787   1.000
    C394    C    0.19202   0.59658   0.14787   1.000
    C395    C    0.19199   0.59666   0.64782   1.000
    C396    C    0.69208   0.09665   0.14780   1.000
    C397    C    0.69203   0.09664   0.64787   1.000
    C398    C    0.69202   0.59659   0.14787   1.000
    C399    C    0.69200   0.59666   0.64782   1.000
    O400    O    0.66530   0.20632   0.03685   1.000
    O401    O    0.71922   0.20380   0.04336   1.000
    O402    O    0.68909   0.24933   0.99615   1.000
    O403    O    0.16529   0.20631   0.03688   1.000
    O404    O    0.21921   0.20379   0.04337   1.000
    O405    O    0.18908   0.24932   0.99615   1.000
    O406    O    0.66525   0.70623   0.03694   1.000
    O407    O    0.71918   0.70370   0.04342   1.000
    O408    O    0.68904   0.74923   0.99621   1.000
    O409    O    0.16525   0.70623   0.03694   1.000
    O410    O    0.21917   0.70370   0.04342   1.000
    O411    O    0.18904   0.74923   0.99621   1.000
    O412    O    0.28019   0.20455   0.04717   1.000
    O413    O    0.33417   0.20842   0.04739   1.000
    O414    O    0.31104   0.25084   0.00376   1.000
    O415    O    0.78020   0.20456   0.04717   1.000
    O416    O    0.83418   0.20842   0.04739   1.000
    O417    O    0.81105   0.25085   0.00376   1.000
    O418    O    0.78016   0.70446   0.04722   1.000
    O419    O    0.83415   0.70832   0.04743   1.000
    O420    O    0.81101   0.75075   0.00381   1.000
    O421    O    0.28015   0.70446   0.04722   1.000
    O422    O    0.33414   0.70832   0.04743   1.000
    O423    O    0.31100   0.75075   0.00381   1.000
    O424    O    0.74929   0.15599   0.09289   1.000
    O425    O    0.24929   0.15598   0.09290   1.000
    O426    O    0.74925   0.65590   0.09294   1.000
    O427    O    0.24925   0.65590   0.09296   1.000
    O428    O    0.22053   0.10995   0.13653   1.000
    O429    O    0.27739   0.11067   0.13986   1.000
    O430    O    0.72054   0.10996   0.13653   1.000
    O431    O    0.77740   0.11067   0.13986   1.000
    O432    O    0.72049   0.60989   0.13658   1.000
    O433    O    0.77737   0.61057   0.13990   1.000
    O434    O    0.22048   0.60988   0.13660   1.000
    O435    O    0.27736   0.61057   0.13991   1.000
    O436    O    0.66888   0.04964   0.19727   1.000
    O437    O    0.16887   0.04964   0.19728   1.000
    O438    O    0.16884   0.54958   0.19736   1.000
    O439    O    0.66884   0.54958   0.19736   1.000
    O440    O    0.33013   0.04776   0.20379   1.000
    O441    O    0.83013   0.04777   0.20379   1.000
    O442    O    0.83012   0.54770   0.20383   1.000
    O443    O    0.33011   0.54770   0.20383   1.000
    O444    O    0.76852   0.80603   0.17953   1.000
    O445    O    0.26851   0.80602   0.17954   1.000
    O446    O    0.26844   0.30600   0.17956   1.000
    O447    O    0.76845   0.30600   0.17957   1.000
    O448    O    0.83323   0.21148   0.18168   1.000
    O449    O    0.33323   0.21148   0.18168   1.000
    O450    O    0.83329   0.71147   0.18173   1.000
    O451    O    0.33328   0.71147   0.18173   1.000
    O452    O    0.82078   0.76288   0.18452   1.000
    O453    O    0.81118   0.81858   0.18946   1.000
    O454    O    0.32078   0.76288   0.18453   1.000
    O455    O    0.31117   0.81858   0.18947   1.000
    O456    O    0.82072   0.26287   0.18453   1.000
    O457    O    0.81111   0.31855   0.18949   1.000
    O458    O    0.32071   0.26287   0.18451   1.000
    O459    O    0.31110   0.31855   0.18951   1.000
    O460    O    0.38091   0.21659   0.19208   1.000
    O461    O    0.88091   0.21660   0.19211   1.000
    O462    O    0.88096   0.71659   0.19213   1.000
    O463    O    0.38096   0.71658   0.19213   1.000
    O464    O    0.86245   0.82957   0.19956   1.000
    O465    O    0.79835   0.87260   0.19967   1.000
    O466    O    0.36244   0.82956   0.19956   1.000
    O467    O    0.29834   0.87259   0.19967   1.000
    O468    O    0.86238   0.32955   0.19920   1.000
    O469    O    0.79827   0.37255   0.19975   1.000
    O470    O    0.36237   0.32954   0.19960   1.000
    O471    O    0.29826   0.37254   0.19975   1.000
    O472    O    0.73797   0.91440   0.19977   1.000
    O473    O    0.67481   0.96332   0.22114   1.000
    O474    O    0.23796   0.91440   0.19977   1.000
    O475    O    0.17481   0.96332   0.22115   1.000
    O476    O    0.23787   0.41431   0.19988   1.000
    O477    O    0.17475   0.46323   0.22126   1.000
    O478    O    0.73788   0.41432   0.19988   1.000
    O479    O    0.67475   0.46324   0.22125   1.000
    O480    O    0.93220   0.22790   0.20137   1.000
    O481    O    0.94164   0.16489   0.20498   1.000
    O482    O    0.43219   0.22790   0.20178   1.000
    O483    O    0.44164   0.16489   0.20498   1.000
    O484    O    0.93225   0.72789   0.20180   1.000
    O485    O    0.94168   0.66487   0.20504   1.000
    O486    O    0.43224   0.72789   0.20180   1.000
    O487    O    0.44168   0.66486   0.20504   1.000
    O488    O    0.92328   0.28517   0.20350   1.000
    O489    O    0.91091   0.33609   0.20721   1.000
    O490    O    0.42333   0.78517   0.20430   1.000
    O491    O    0.41097   0.83611   0.20758   1.000
    O492    O    0.92334   0.78517   0.20430   1.000
    O493    O    0.91098   0.83611   0.20754   1.000
    O494    O    0.42327   0.28517   0.20430   1.000
    O495    O    0.41091   0.33609   0.20760   1.000
    O496    O    0.28363   0.92089   0.21399   1.000
    O497    O    0.97564   0.24264   0.20798   1.000
    O498    O    0.78363   0.92089   0.21395   1.000
    O499    O    0.28353   0.42082   0.21410   1.000
    O500    O    0.78354   0.42082   0.21410   1.000
    O501    O    0.47563   0.24264   0.20838   1.000
    O502    O    0.47568   0.74262   0.20841   1.000
    O503    O    0.97569   0.74262   0.20841   1.000
    O504    O    0.45107   0.60310   0.21099   1.000
    O505    O    0.39563   0.53904   0.23193   1.000
    O506    O    0.95104   0.10313   0.21097   1.000
    O507    O    0.89561   0.03906   0.23193   1.000
    O508    O    0.45103   0.10313   0.21097   1.000
    O509    O    0.39561   0.03906   0.23194   1.000
    O510    O    0.95107   0.60310   0.21103   1.000
    O511    O    0.89563   0.53904   0.23197   1.000
    O512    O    0.49873   0.11608   0.21738   1.000
    O513    O    0.99873   0.11609   0.21736   1.000
    O514    O    0.49875   0.61604   0.21749   1.000
    O515    O    0.99875   0.61604   0.21750   1.000
    O516    O    0.08890   0.05461   0.23513   1.000
    O517    O    0.58890   0.05461   0.23515   1.000
    O518    O    0.58890   0.55455   0.23527   1.000
    O519    O    0.08890   0.55455   0.23528   1.000
    O520    O    0.82487   0.96722   0.23852   1.000
    O521    O    0.32487   0.96721   0.23856   1.000
    O522    O    0.82482   0.46717   0.23862   1.000
    O523    O    0.32481   0.46717   0.23863   1.000
    O524    O    0.67528   0.03287   0.26088   1.000
    O525    O    0.60453   0.96103   0.26795   1.000
    O526    O    0.67001   0.95232   0.29609   1.000
    O527    O    0.17527   0.03287   0.26133   1.000
    O528    O    0.10453   0.96103   0.26793   1.000
    O529    O    0.17000   0.95232   0.29610   1.000
    O530    O    0.67531   0.53284   0.26138   1.000
    O531    O    0.60449   0.46096   0.26803   1.000
    O532    O    0.67001   0.45231   0.29617   1.000
    O533    O    0.17530   0.53283   0.26139   1.000
    O534    O    0.10449   0.46096   0.26804   1.000
    O535    O    0.17000   0.45231   0.29618   1.000
    O536    O    0.41123   0.94547   0.26472   1.000
    O537    O    0.32533   0.03675   0.27872   1.000
    O538    O    0.33126   0.95043   0.30257   1.000
    O539    O    0.91123   0.94547   0.26474   1.000
    O540    O    0.82533   0.03675   0.27876   1.000
    O541    O    0.83127   0.95044   0.30261   1.000
    O542    O    0.91121   0.44545   0.26474   1.000
    O543    O    0.82537   0.53679   0.27875   1.000
    O544    O    0.83129   0.45043   0.30266   1.000
    O545    O    0.41121   0.44545   0.26475   1.000
    O546    O    0.32536   0.53678   0.27875   1.000
    O547    O    0.33128   0.45042   0.30266   1.000
    O548    O    0.71652   0.07918   0.28545   1.000
    O549    O    0.21651   0.07918   0.28590   1.000
    O550    O    0.21658   0.57919   0.28546   1.000
    O551    O    0.71659   0.57920   0.28590   1.000
    O552    O    0.50141   0.88400   0.28250   1.000
    O553    O    0.00136   0.38396   0.28252   1.000
    O554    O    0.50137   0.38396   0.28252   1.000
    O555    O    0.00140   0.88400   0.28252   1.000
    O556    O    0.02444   0.25739   0.29156   1.000
    O557    O    0.52444   0.25739   0.29156   1.000
    O558    O    0.52449   0.75741   0.29157   1.000
    O559    O    0.02449   0.75741   0.29157   1.000
    O560    O    0.08915   0.16393   0.29236   1.000
    O561    O    0.58916   0.16393   0.29236   1.000
    O562    O    0.08921   0.66394   0.29238   1.000
    O563    O    0.58922   0.66394   0.29238   1.000
    O564    O    0.04910   0.89696   0.28890   1.000
    O565    O    0.05849   0.83519   0.29494   1.000
    O566    O    0.54911   0.89696   0.28893   1.000
    O567    O    0.55850   0.83519   0.29494   1.000
    O568    O    0.54905   0.39690   0.28897   1.000
    O569    O    0.55844   0.33514   0.29496   1.000
    O570    O    0.04904   0.39690   0.28897   1.000
    O571    O    0.05844   0.33514   0.29496   1.000
    O572    O    0.26224   0.58571   0.29967   1.000
    O573    O    0.20185   0.62749   0.29979   1.000
    O574    O    0.07679   0.21485   0.29566   1.000
    O575    O    0.06788   0.27212   0.29817   1.000
    O576    O    0.57680   0.21486   0.29566   1.000
    O577    O    0.56788   0.27212   0.29817   1.000
    O578    O    0.57685   0.71488   0.29567   1.000
    O579    O    0.56793   0.77216   0.29817   1.000
    O580    O    0.07685   0.71488   0.29567   1.000
    O581    O    0.06793   0.77216   0.29817   1.000
    O582    O    0.76225   0.58571   0.30011   1.000
    O583    O    0.70186   0.62749   0.30024   1.000
    O584    O    0.76218   0.08566   0.30014   1.000
    O585    O    0.70179   0.12746   0.30024   1.000
    O586    O    0.26217   0.08565   0.30010   1.000
    O587    O    0.20179   0.12745   0.30025   1.000
    O588    O    0.13768   0.17047   0.30038   1.000
    O589    O    0.63769   0.17047   0.30038   1.000
    O590    O    0.13774   0.67050   0.30039   1.000
    O591    O    0.63775   0.67050   0.30039   1.000
    O592    O    0.61922   0.78348   0.30782   1.000
    O593    O    0.11921   0.78347   0.30783   1.000
    O594    O    0.11916   0.28342   0.30785   1.000
    O595    O    0.61916   0.28342   0.30785   1.000
    O596    O    0.18901   0.68149   0.31047   1.000
    O597    O    0.68896   0.18145   0.31048   1.000
    O598    O    0.68902   0.68150   0.31046   1.000
    O599    O    0.18895   0.18145   0.31049   1.000
    O600    O    0.67941   0.73719   0.31540   1.000
    O601    O    0.66690   0.78860   0.31821   1.000
    O602    O    0.17940   0.73719   0.31541   1.000
    O603    O    0.16689   0.78859   0.31822   1.000
    O604    O    0.67935   0.23714   0.31544   1.000
    O605    O    0.66684   0.28854   0.31825   1.000
    O606    O    0.17934   0.23714   0.31544   1.000
    O607    O    0.16684   0.28853   0.31825   1.000
    O608    O    0.73168   0.69406   0.32038   1.000
    O609    O    0.23168   0.69406   0.32039   1.000
    O610    O    0.73162   0.19400   0.32042   1.000
    O611    O    0.23161   0.19400   0.32042   1.000
    O612    O    0.72274   0.88941   0.36002   1.000
    O613    O    0.22274   0.88940   0.36003   1.000
    O614    O    0.72277   0.38944   0.36009   1.000
    O615    O    0.22276   0.38944   0.36010   1.000
    O616    O    0.27960   0.89012   0.36331   1.000
    O617    O    0.77960   0.89012   0.36334   1.000
    O618    O    0.27963   0.39012   0.36343   1.000
    O619    O    0.77964   0.39013   0.36342   1.000
    O620    O    0.75084   0.84410   0.40699   1.000
    O621    O    0.25083   0.84410   0.40700   1.000
    O622    O    0.75086   0.34412   0.40706   1.000
    O623    O    0.25085   0.34412   0.40708   1.000
    O624    O    0.16592   0.79169   0.45251   1.000
    O625    O    0.66593   0.79169   0.45251   1.000
    O626    O    0.66595   0.29172   0.45258   1.000
    O627    O    0.16594   0.29171   0.45258   1.000
    O628    O    0.21991   0.79554   0.45273   1.000
    O629    O    0.28090   0.79629   0.45654   1.000
    O630    O    0.71992   0.79555   0.45273   1.000
    O631    O    0.78090   0.79630   0.45654   1.000
    O632    O    0.71993   0.29557   0.45279   1.000
    O633    O    0.78091   0.29632   0.45660   1.000
    O634    O    0.21993   0.29557   0.45280   1.000
    O635    O    0.28091   0.29632   0.45661   1.000
    O636    O    0.33482   0.79376   0.46302   1.000
    O637    O    0.83483   0.79377   0.46302   1.000
    O638    O    0.83484   0.29379   0.46308   1.000
    O639    O    0.33483   0.29379   0.46310   1.000
    O640    O    0.68906   0.74928   0.49614   1.000
    O641    O    0.18905   0.74927   0.49615   1.000
    O642    O    0.68907   0.24930   0.49621   1.000
    O643    O    0.18907   0.24930   0.49621   1.000
    O644    O    0.31102   0.75077   0.50376   1.000
    O645    O    0.81102   0.75078   0.50376   1.000
    O646    O    0.31103   0.25080   0.50383   1.000
    O647    O    0.81103   0.25080   0.50383   1.000
    O648    O    0.16525   0.70629   0.53688   1.000
    O649    O    0.21917   0.70375   0.54337   1.000
    O650    O    0.66525   0.70629   0.53688   1.000
    O651    O    0.71918   0.70376   0.54337   1.000
    O652    O    0.66527   0.20631   0.53694   1.000
    O653    O    0.71919   0.20378   0.54343   1.000
    O654    O    0.16526   0.20630   0.53694   1.000
    O655    O    0.21918   0.20378   0.54314   1.000
    O656    O    0.28015   0.70450   0.54717   1.000
    O657    O    0.33414   0.70836   0.54739   1.000
    O658    O    0.78016   0.70451   0.54717   1.000
    O659    O    0.83415   0.70836   0.54739   1.000
    O660    O    0.78017   0.20453   0.54724   1.000
    O661    O    0.83416   0.20839   0.54746   1.000
    O662    O    0.28016   0.20453   0.54695   1.000
    O663    O    0.33415   0.20838   0.54746   1.000
    O664    O    0.24925   0.15597   0.59267   1.000
    O665    O    0.74924   0.65595   0.59290   1.000
    O666    O    0.24923   0.65595   0.59290   1.000
    O667    O    0.74925   0.15598   0.59296   1.000
    O668    O    0.22046   0.60995   0.63655   1.000
    O669    O    0.27733   0.61063   0.63987   1.000
    O670    O    0.72047   0.60995   0.63655   1.000
    O671    O    0.77734   0.61063   0.63987   1.000
    O672    O    0.22048   0.10995   0.63660   1.000
    O673    O    0.27734   0.11066   0.63993   1.000
    O674    O    0.72049   0.10995   0.63660   1.000
    O675    O    0.77735   0.11067   0.63993   1.000
    O676    O    0.66881   0.54965   0.69731   1.000
    O677    O    0.16881   0.54964   0.69731   1.000
    O678    O    0.66883   0.04964   0.69733   1.000
    O679    O    0.16882   0.04963   0.69735   1.000
    O680    O    0.83009   0.54776   0.70379   1.000
    O681    O    0.33009   0.54776   0.70379   1.000
    O682    O    0.83008   0.04775   0.70387   1.000
    O683    O    0.33008   0.04775   0.70387   1.000
    O684    O    0.26847   0.80606   0.67956   1.000
    O685    O    0.76848   0.80606   0.67956   1.000
    O686    O    0.26841   0.30601   0.67959   1.000
    O687    O    0.76841   0.30602   0.67959   1.000
    O688    O    0.83326   0.71153   0.68168   1.000
    O689    O    0.33325   0.71153   0.68172   1.000
    O690    O    0.83319   0.21148   0.68150   1.000
    O691    O    0.33319   0.21148   0.68175   1.000
    O692    O    0.32074   0.76293   0.68453   1.000
    O693    O    0.31113   0.81861   0.68949   1.000
    O694    O    0.82075   0.76293   0.68450   1.000
    O695    O    0.81114   0.81861   0.68949   1.000
    O696    O    0.32068   0.26288   0.68456   1.000
    O697    O    0.31107   0.31857   0.68951   1.000
    O698    O    0.82068   0.26288   0.68431   1.000
    O699    O    0.81108   0.31858   0.68951   1.000
    O700    O    0.88087   0.21660   0.69189   1.000
    O701    O    0.88093   0.71664   0.69209   1.000
    O702    O    0.38092   0.71664   0.69212   1.000
    O703    O    0.38087   0.21660   0.69214   1.000
    O704    O    0.36240   0.82959   0.69959   1.000
    O705    O    0.29829   0.87261   0.69972   1.000
    O706    O    0.86240   0.82960   0.69959   1.000
    O707    O    0.79830   0.87261   0.69972   1.000
    O708    O    0.36234   0.32957   0.69959   1.000
    O709    O    0.29823   0.37258   0.69973   1.000
    O710    O    0.86235   0.32957   0.69959   1.000
    O711    O    0.79824   0.37258   0.69973   1.000
    O712    O    0.23791   0.91441   0.69983   1.000
    O713    O    0.17475   0.96331   0.72121   1.000
    O714    O    0.73792   0.91441   0.69983   1.000
    O715    O    0.67476   0.96332   0.72120   1.000
    O716    O    0.73785   0.41436   0.69985   1.000
    O717    O    0.67473   0.46329   0.72121   1.000
    O718    O    0.23784   0.41436   0.69985   1.000
    O719    O    0.17472   0.46329   0.72122   1.000
    O720    O    0.93221   0.72794   0.70180   1.000
    O721    O    0.94165   0.66492   0.70502   1.000
    O722    O    0.43221   0.72794   0.70180   1.000
    O723    O    0.44164   0.66492   0.70499   1.000
    O724    O    0.93216   0.22791   0.70180   1.000
    O725    O    0.94160   0.16489   0.70503   1.000
    O726    O    0.43215   0.22791   0.70180   1.000
    O727    O    0.44159   0.16489   0.70503   1.000
    O728    O    0.92324   0.28519   0.70430   1.000
    O729    O    0.91089   0.33613   0.70759   1.000
    O730    O    0.42324   0.28519   0.70431   1.000
    O731    O    0.41088   0.33612   0.70740   1.000
    O732    O    0.42329   0.78521   0.70432   1.000
    O733    O    0.41092   0.83614   0.70762   1.000
    O734    O    0.92329   0.78521   0.70432   1.000
    O735    O    0.91093   0.83614   0.70761   1.000
    O736    O    0.78358   0.92089   0.71406   1.000
    O737    O    0.28357   0.92089   0.71406   1.000
    O738    O    0.28350   0.42087   0.71407   1.000
    O739    O    0.78351   0.42087   0.71407   1.000
    O740    O    0.97560   0.24265   0.70840   1.000
    O741    O    0.47560   0.24265   0.70836   1.000
    O742    O    0.97565   0.74267   0.70842   1.000
    O743    O    0.47564   0.74267   0.70842   1.000
    O744    O    0.95105   0.60316   0.71100   1.000
    O745    O    0.89560   0.53911   0.73194   1.000
    O746    O    0.45104   0.60316   0.71097   1.000
    O747    O    0.39560   0.53911   0.73194   1.000
    O748    O    0.95099   0.10312   0.71103   1.000
    O749    O    0.89556   0.03905   0.73200   1.000
    O750    O    0.45098   0.10312   0.71104   1.000
    O751    O    0.39555   0.03904   0.73201   1.000
    O752    O    0.49872   0.61610   0.71743   1.000
    O753    O    0.99872   0.61610   0.71746   1.000
    O754    O    0.99868   0.11608   0.71744   1.000
    O755    O    0.49868   0.11608   0.71744   1.000
    O756    O    0.58886   0.05461   0.73520   1.000
    O757    O    0.08885   0.05460   0.73522   1.000
    O758    O    0.58888   0.55462   0.73523   1.000
    O759    O    0.08887   0.55461   0.73524   1.000
    O760    O    0.32479   0.46723   0.73859   1.000
    O761    O    0.32481   0.96720   0.73863   1.000
    O762    O    0.82479   0.46724   0.73859   1.000
    O763    O    0.82482   0.96721   0.73863   1.000
    O764    O    0.67522   0.03286   0.76138   1.000
    O765    O    0.60448   0.96102   0.76801   1.000
    O766    O    0.66996   0.95231   0.79616   1.000
    O767    O    0.67528   0.53290   0.76135   1.000
    O768    O    0.60447   0.46103   0.76800   1.000
    O769    O    0.66998   0.45237   0.79613   1.000
    O770    O    0.17527   0.53289   0.76131   1.000
    O771    O    0.10446   0.46102   0.76800   1.000
    O772    O    0.16998   0.45237   0.79614   1.000
    O773    O    0.17521   0.03286   0.76140   1.000
    O774    O    0.10448   0.96102   0.76802   1.000
    O775    O    0.16995   0.95230   0.79617   1.000
    O776    O    0.91119   0.44551   0.76471   1.000
    O777    O    0.82534   0.53684   0.77871   1.000
    O778    O    0.83126   0.45049   0.80262   1.000
    O779    O    0.41119   0.44551   0.76471   1.000
    O780    O    0.32534   0.53684   0.77871   1.000
    O781    O    0.33125   0.45049   0.80262   1.000
    O782    O    0.41118   0.94546   0.76481   1.000
    O783    O    0.32527   0.03675   0.77882   1.000
    O784    O    0.33121   0.95043   0.80268   1.000
    O785    O    0.91118   0.94546   0.76481   1.000
    O786    O    0.82528   0.03675   0.77882   1.000
    O787    O    0.83121   0.95043   0.80268   1.000
    O788    O    0.21656   0.57925   0.78583   1.000
    O789    O    0.71656   0.57925   0.78584   1.000
    O790    O    0.21645   0.07918   0.78596   1.000
    O791    O    0.71646   0.07918   0.78593   1.000
    O792    O    0.00134   0.38402   0.78249   1.000
    O793    O    0.50134   0.38402   0.78249   1.000
    O794    O    0.00136   0.88399   0.78258   1.000
    O795    O    0.50136   0.88399   0.78258   1.000
    O796    O    0.52440   0.25744   0.79153   1.000
    O797    O    0.02440   0.25744   0.79157   1.000
    O798    O    0.02445   0.75742   0.79159   1.000
    O799    O    0.52446   0.75743   0.79159   1.000
    O800    O    0.58919   0.66397   0.79237   1.000
    O801    O    0.08918   0.66397   0.79237   1.000
    O802    O    0.58911   0.16396   0.79239   1.000
    O803    O    0.08911   0.16395   0.79239   1.000
    O804    O    0.04902   0.39696   0.78894   1.000
    O805    O    0.05841   0.33520   0.79494   1.000
    O806    O    0.54902   0.39696   0.78894   1.000
    O807    O    0.55841   0.33520   0.79494   1.000
    O808    O    0.04905   0.89695   0.78898   1.000
    O809    O    0.05845   0.83518   0.79498   1.000
    O810    O    0.54906   0.89695   0.78898   1.000
    O811    O    0.55845   0.83519   0.79498   1.000
    O812    O    0.07675   0.21489   0.79568   1.000
    O813    O    0.06784   0.27217   0.79817   1.000
    O814    O    0.57675   0.21490   0.79568   1.000
    O815    O    0.56784   0.27218   0.79817   1.000
    O816    O    0.57682   0.71490   0.79568   1.000
    O817    O    0.56790   0.77217   0.79819   1.000
    O818    O    0.07681   0.71490   0.79568   1.000
    O819    O    0.06789   0.77217   0.79820   1.000
    O820    O    0.76223   0.58576   0.80005   1.000
    O821    O    0.70183   0.62753   0.80019   1.000
    O822    O    0.26222   0.58576   0.80009   1.000
    O823    O    0.20182   0.62752   0.80018   1.000
    O824    O    0.76212   0.08567   0.80016   1.000
    O825    O    0.70174   0.12747   0.80026   1.000
    O826    O    0.26211   0.08566   0.80020   1.000
    O827    O    0.20173   0.12747   0.80029   1.000
    O828    O    0.63772   0.67053   0.80038   1.000
    O829    O    0.13771   0.67052   0.80034   1.000
    O830    O    0.63764   0.17050   0.80041   1.000
    O831    O    0.13764   0.17050   0.80041   1.000
    O832    O    0.11912   0.28348   0.80784   1.000
    O833    O    0.61913   0.28348   0.80784   1.000
    O834    O    0.61918   0.78348   0.80786   1.000
    O835    O    0.11918   0.78348   0.80786   1.000
    O836    O    0.18898   0.68152   0.81043   1.000
    O837    O    0.68899   0.68152   0.81047   1.000
    O838    O    0.18891   0.18148   0.81051   1.000
    O839    O    0.68891   0.18149   0.81051   1.000
    O840    O    0.67931   0.23718   0.81544   1.000
    O841    O    0.66681   0.28859   0.81824   1.000
    O842    O    0.17930   0.23718   0.81544   1.000
    O843    O    0.16680   0.28859   0.81824   1.000
    O844    O    0.67937   0.73720   0.81543   1.000
    O845    O    0.66686   0.78859   0.81825   1.000
    O846    O    0.17937   0.73720   0.81543   1.000
    O847    O    0.16685   0.78859   0.81826   1.000
    O848    O    0.23164   0.69407   0.82039   1.000
    O849    O    0.73165   0.69408   0.82039   1.000
    O850    O    0.73158   0.19404   0.82043   1.000
    O851    O    0.23157   0.19404   0.82043   1.000
    O852    O    0.72274   0.38950   0.86005   1.000
    O853    O    0.22273   0.38950   0.86006   1.000
    O854    O    0.72269   0.88940   0.86011   1.000
    O855    O    0.22268   0.88939   0.86011   1.000
    O856    O    0.77961   0.39019   0.86338   1.000
    O857    O    0.27961   0.39019   0.86338   1.000
    O858    O    0.27954   0.89011   0.86343   1.000
    O859    O    0.77955   0.89012   0.86343   1.000
    O860    O    0.75085   0.34418   0.90702   1.000
    O861    O    0.25084   0.34418   0.90682   1.000
    O862    O    0.25079   0.84408   0.90707   1.000
    O863    O    0.75080   0.84409   0.90707   1.000
    O864    O    0.66595   0.29175   0.95253   1.000
    O865    O    0.16594   0.29175   0.95253   1.000
    O866    O    0.21993   0.29561   0.95255   1.000
    O867    O    0.28091   0.29637   0.95635   1.000
    O868    O    0.16590   0.79166   0.95259   1.000
    O869    O    0.66590   0.79166   0.95259   1.000
    O870    O    0.71993   0.29562   0.95274   1.000
    O871    O    0.78092   0.29638   0.95655   1.000
    O872    O    0.71989   0.79552   0.95280   1.000
    O873    O    0.78087   0.79628   0.95659   1.000
    O874    O    0.21988   0.79552   0.95280   1.000
    O875    O    0.28087   0.79628   0.95660   1.000
    O876    O    0.83484   0.29385   0.96303   1.000
    O877    O    0.33483   0.29385   0.96303   1.000
    O878    O    0.83480   0.79376   0.96308   1.000
    O879    O    0.33479   0.79376   0.96308   1.000
    O880    O    0.22041   0.46974   0.23548   1.000
    O881    O    0.22038   0.46980   0.73543   1.000
    O882    O    0.22047   0.96981   0.23538   1.000
    O883    O    0.22041   0.96980   0.73545   1.000
    O884    O    0.72042   0.46974   0.23547   1.000
    O885    O    0.72039   0.46980   0.73543   1.000
    O886    O    0.72047   0.96981   0.23532   1.000
    O887    O    0.72042   0.96980   0.73543   1.000
    O888    O    0.27967   0.03027   0.26452   1.000
    O889    O    0.27961   0.03026   0.76459   1.000
    O890    O    0.27970   0.53026   0.26454   1.000
    O891    O    0.27968   0.53033   0.76446   1.000
    O892    O    0.77967   0.03028   0.26407   1.000
    O893    O    0.77962   0.03027   0.76459   1.000
    O894    O    0.77971   0.53027   0.26454   1.000
    O895    O    0.77968   0.53033   0.76450   1.000
loop_
    _geom_bond_atom_site_label_1
    _geom_bond_atom_site_label_2
    _geom_bond_distance
    _geom_bond_site_symmetry_2
    _ccdc_geom_bond_type
    C292   O400      0.54446      .   S
    C100   O400      0.54446      .   S
    C292   O401      0.70186      .   S
    C284   O401      0.70186      .   S
    C292   O402      0.69548  1_554   S
    C205   O402      0.69548      .   S
    C288   O403      0.54448      .   S
    C96    O403      0.54448      .   S
    C288   O404      0.70194      .   S
    C280   O404      0.70194      .   S
    C288   O405      0.69549  1_554   S
    C201   O405      0.69549      .   S
    C294   O406      0.54448      .   S
    C102   O406      0.54448      .   S
    C294   O407      0.70190      .   S
    C286   O407      0.70190      .   S
    C294   O408      0.69547  1_554   S
    C207   O408      0.69547      .   S
    C290   O409      0.54447      .   S
    C98    O409      0.54447      .   S
    C290   O410      0.70189      .   S
    C282   O410      0.70189      .   S
    C290   O411      0.69546  1_554   S
    C203   O411      0.69546      .   S
    C296   O412      0.70207      .   S
    C280   O412      0.70207      .   S
    C296   O413      0.54456      .   S
    C104   O413      0.54456      .   S
    C296   O414      0.69547      .   S
    C193   O414      0.69547  1_556   S
    C300   O415      0.70207      .   S
    C284   O415      0.70207      .   S
    C300   O416      0.54455      .   S
    C108   O416      0.54455      .   S
    C300   O417      0.69548      .   S
    C197   O417      0.69548  1_556   S
    C302   O418      0.70207      .   S
    C286   O418      0.70207      .   S
    C302   O419      0.54460      .   S
    C110   O419      0.54460      .   S
    C302   O420      0.69548      .   S
    C199   O420      0.69548  1_556   S
    C298   O421      0.70207      .   S
    C282   O421      0.70207      .   S
    C298   O422      0.54452      .   S
    C106   O422      0.54452      .   S
    C298   O423      0.69547      .   S
    C195   O423      0.69547  1_556   S
    C284   O424      0.74869      .   S
    C276   O424      0.74869      .   S
    C280   O425      0.74861      .   S
    C272   O425      0.74861      .   S
    C286   O426      0.74841      .   S
    C278   O426      0.74841      .   S
    C282   O427      0.74867      .   S
    C274   O427      0.74867      .   S
    C272   O428      0.63712      .   S
    C392   O428      0.63712      .   S
    C272   O429      0.64010      .   S
    C384   O429      0.64010      .   S
    C276   O430      0.63712      .   S
    C396   O430      0.63712      .   S
    C276   O431      0.64010      .   S
    C388   O431      0.64010      .   S
    C278   O432      0.63712      .   S
    C398   O432      0.63712      .   S
    C278   O433      0.64034      .   S
    C390   O433      0.64034      .   S
    C274   O434      0.63712      .   S
    C394   O434      0.63712      .   S
    C274   O435      0.64010      .   S
    C386   O435      0.64010      .   S
    C396   O436      1.21891      .   S
    C4     O436      1.21891      .   S
    C392   O437      1.21896      .   S
    C0     O437      1.21896      .   S
    C394   O438      1.21906      .   S
    C2     O438      1.21906      .   S
    C398   O439      1.21900      .   S
    C6     O439      1.21900      .   S
    C384   O440      1.21801      .   S
    C10    O440      1.21801  1_565   S
    C388   O441      1.21800      .   S
    C14    O441      1.21800  1_565   S
    C390   O442      1.21760      .   S
    C12    O442      1.21760      .   S
    C386   O443      1.21770      .   S
    C8     O443      1.21770      .   S
    C22    O444      0.54429      .   S
    C134   O444      0.54429      .   S
    C18    O445      0.54433      .   S
    C130   O445      0.54433      .   S
    C16    O446      0.54446      .   S
    C128   O446      0.54446      .   S
    C20    O447      0.54426      .   S
    C132   O447      0.54426      .   S
    C28    O448      0.54484      .   S
    C140   O448      0.54484      .   S
    C24    O449      0.54375      .   S
    C136   O449      0.54375      .   S
    C30    O450      0.54427      .   S
    C142   O450      0.54427      .   S
    C26    O451      0.54427      .   S
    C138   O451      0.54427      .   S
    C134   O452      0.69592      .   S
    C142   O452      0.69592      .   S
    C134   O453      0.70240      .   S
    C126   O453      0.70240      .   S
    C130   O454      0.69597      .   S
    C138   O454      0.69597      .   S
    C130   O455      0.70240      .   S
    C122   O455      0.70240      .   S
    C132   O456      0.69588      .   S
    C140   O456      0.69588      .   S
    C132   O457      0.70254      .   S
    C124   O457      0.70254      .   S
    C128   O458      0.69625      .   S
    C136   O458      0.69625      .   S
    C128   O459      0.70245      .   S
    C120   O459      0.70245      .   S
    C136   O460      0.70209      .   S
    C144   O460      0.70209      .   S
    C140   O461      0.70180      .   S
    C148   O461      0.70180      .   S
    C142   O462      0.70181      .   S
    C150   O462      0.70181      .   S
    C138   O463      0.70183      .   S
    C146   O463      0.70183      .   S
    C126   O464      0.70117      .   S
    C166   O464      0.70117      .   S
    C126   O465      0.74455      .   S
    C118   O465      0.74455      .   S
    C122   O466      0.70114      .   S
    C162   O466      0.70114      .   S
    C122   O467      0.74442      .   S
    C114   O467      0.74442      .   S
    C124   O468      0.69871      .   S
    C164   O468      0.69871      .   S
    C124   O469      0.74460      .   S
    C116   O469      0.74460      .   S
    C120   O470      0.70116      .   S
    C160   O470      0.70116      .   S
    C120   O471      0.74454      .   S
    C112   O471      0.74454      .   S
    C310   O472      0.63542      .   S
    C118   O472      0.63542      .   S
    C310   O473      1.24445      .   S
    C4     O473      1.24445  1_545   S
    C306   O474      0.63537      .   S
    C114   O474      0.63537      .   S
    C306   O475      1.24454      .   S
    C0     O475      1.24454  1_545   S
    C304   O476      0.63546      .   S
    C112   O476      0.63546      .   S
    C304   O477      1.24456      .   S
    C2     O477      1.24456      .   S
    C308   O478      0.63545      .   S
    C116   O478      0.63545      .   S
    C308   O479      1.24446      .   S
    C6     O479      1.24446      .   S
    C148   O480      0.69504      .   S
    C156   O480      0.69504      .   S
    C148   O481      0.74998      .   S
    C268   O481      0.74998      .   S
    C144   O482      0.70121      .   S
    C152   O482      0.70121      .   S
    C144   O483      0.75001      .   S
    C264   O483      0.75001      .   S
    C150   O484      0.70119      .   S
    C158   O484      0.70119      .   S
    C150   O485      0.74998      .   S
    C270   O485      0.74998      .   S
    C146   O486      0.70118      .   S
    C154   O486      0.70118      .   S
    C146   O487      0.74998      .   S
    C266   O487      0.74998      .   S
    C164   O488      0.69474      .   S
    C156   O488      0.69474      .   S
    C164   O489      0.55118      .   S
    C44    O489      0.55118      .   S
    C162   O490      0.69472      .   S
    C154   O490      0.69472      .   S
    C162   O491      0.54442      .   S
    C42    O491      0.54442      .   S
    C166   O492      0.69473      .   S
    C158   O492      0.69473      .   S
    C166   O493      0.54366      .   S
    C46    O493      0.54366      .   S
    C160   O494      0.69473      .   S
    C152   O494      0.69473      .   S
    C160   O495      0.54435      .   S
    C40    O495      0.54435      .   S
    C114   O496      0.64684      .   S
    C314   O496      0.64684      .   S
    C156   O497      0.54585      .   S
    C32    O497      0.54585  1_455   S
    C118   O498      0.64584      .   S
    C318   O498      0.64584      .   S
    C112   O499      0.64670      .   S
    C312   O499      0.64670      .   S
    C116   O500      0.64661      .   S
    C316   O500      0.64661      .   S
    C152   O501      0.54318      .   S
    C36    O501      0.54318      .   S
    C154   O502      0.54321      .   S
    C38    O502      0.54321      .   S
    C158   O503      0.54320      .   S
    C34    O503      0.54320  1_455   S
    C378   O504      0.63663      .   S
    C266   O504      0.63663      .   S
    C378   O505      1.21223      .   S
    C8     O505      1.21223      .   S
    C380   O506      0.63610      .   S
    C268   O506      0.63610      .   S
    C380   O507      1.21201      .   S
    C14    O507      1.21201  1_565   S
    C376   O508      0.63603      .   S
    C264   O508      0.63603      .   S
    C376   O509      1.21203      .   S
    C10    O509      1.21203  1_565   S
    C382   O510      0.63608      .   S
    C270   O510      0.63608      .   S
    C382   O511      1.21235      .   S
    C12    O511      1.21235      .   S
    C264   O512      0.63956      .   S
    C372   O512      0.63956      .   S
    C268   O513      0.63931      .   S
    C368   O513      0.63931  1_455   S
    C266   O514      0.63958      .   S
    C374   O514      0.63958      .   S
    C270   O515      0.63958      .   S
    C370   O515      0.63958  1_455   S
    C368   O516      1.21565      .   S
    C0     O516      1.21565      .   S
    C372   O517      1.21566      .   S
    C4     O517      1.21566      .   S
    C374   O518      1.21558      .   S
    C6     O518      1.21558      .   S
    C370   O519      1.21559      .   S
    C2     O519      1.21559      .   S
    C318   O520      1.23648      .   S
    C14    O520      1.23648      .   S
    C314   O521      1.23570      .   S
    C10    O521      1.23570      .   S
    C316   O522      1.23617      .   S
    C12    O522      1.23617      .   S
    C312   O523      1.23619      .   S
    C8     O523      1.23619      .   S
    C4     O524      1.22752      .   S
    C364   O524      1.22752      .   S
    C4     O525      1.21194  1_545   S
    C334   O525      1.21194      .   S
    C4     O526      1.21802  1_545   S
    C342   O526      1.21802      .   S
    C0     O527      1.23570      .   S
    C360   O527      1.23570      .   S
    C0     O528      1.21202  1_545   S
    C330   O528      1.21202      .   S
    C0     O529      1.21791  1_545   S
    C338   O529      1.21791      .   S
    C6     O530      1.23627      .   S
    C366   O530      1.23627      .   S
    C6     O531      1.21241      .   S
    C332   O531      1.21241      .   S
    C6     O532      1.21757      .   S
    C340   O532      1.21757      .   S
    C2     O533      1.23616      .   S
    C362   O533      1.23616      .   S
    C2     O534      1.21238      .   S
    C328   O534      1.21238      .   S
    C2     O535      1.21755      .   S
    C336   O535      1.21755      .   S
    C10    O536      1.21566      .   S
    C322   O536      1.21566      .   S
    C10    O537      1.24365  1_565   S
    C352   O537      1.24365      .   S
    C10    O538      1.21837      .   S
    C346   O538      1.21837      .   S
    C14    O539      1.21566      .   S
    C326   O539      1.21566      .   S
    C14    O540      1.24447  1_565   S
    C356   O540      1.24447      .   S
    C14    O541      1.21896      .   S
    C350   O541      1.21896      .   S
    C12    O542      1.21560      .   S
    C324   O542      1.21560      .   S
    C12    O543      1.24456      .   S
    C358   O543      1.24456      .   S
    C12    O544      1.21909      .   S
    C348   O544      1.21909      .   S
    C8     O545      1.21560      .   S
    C320   O545      1.21560      .   S
    C8     O546      1.24445      .   S
    C354   O546      1.24445      .   S
    C8     O547      1.21904      .   S
    C344   O547      1.21904      .   S
    C364   O548      0.65578      .   S
    C212   O548      0.65578      .   S
    C360   O549      0.64662      .   S
    C208   O549      0.64662      .   S
    C362   O550      0.63767      .   S
    C210   O550      0.63767      .   S
    C366   O551      0.64665      .   S
    C214   O551      0.64665      .   S
    C322   O552      0.63983      .   S
    C174   O552      0.63983      .   S
    C324   O553      0.63957  1_655   S
    C168   O553      0.63957      .   S
    C320   O554      0.63960      .   S
    C172   O554      0.63960      .   S
    C326   O555      0.63956  1_655   S
    C170   O555      0.63956      .   S
    C84    O556      0.54319  1_655   S
    C248   O556      0.54319      .   S
    C80    O557      0.54320      .   S
    C252   O557      0.54320      .   S
    C82    O558      0.54321      .   S
    C254   O558      0.54321      .   S
    C86    O559      0.54320  1_655   S
    C250   O559      0.54320      .   S
    C88    O560      0.54440      .   S
    C256   O560      0.54440      .   S
    C92    O561      0.54441      .   S
    C260   O561      0.54441      .   S
    C90    O562      0.54440      .   S
    C258   O562      0.54440      .   S
    C94    O563      0.54438      .   S
    C262   O563      0.54438      .   S
    C170   O564      0.63568      .   S
    C330   O564      0.63568      .   S
    C170   O565      0.75002      .   S
    C242   O565      0.75002      .   S
    C174   O566      0.63604      .   S
    C334   O566      0.63604      .   S
    C174   O567      0.74999      .   S
    C246   O567      0.74999      .   S
    C172   O568      0.63601      .   S
    C332   O568      0.63601      .   S
    C172   O569      0.74999      .   S
    C244   O569      0.74999      .   S
    C168   O570      0.63609      .   S
    C328   O570      0.63609      .   S
    C168   O571      0.74998      .   S
    C240   O571      0.74998      .   S
    C210   O572      0.63862      .   S
    C354   O572      0.63862      .   S
    C210   O573      0.75020      .   S
    C218   O573      0.75020      .   S
    C248   O574      0.69471      .   S
    C256   O574      0.69471      .   S
    C248   O575      0.70124      .   S
    C240   O575      0.70124      .   S
    C252   O576      0.69469      .   S
    C260   O576      0.69469      .   S
    C252   O577      0.70123      .   S
    C244   O577      0.70123      .   S
    C254   O578      0.69475      .   S
    C262   O578      0.69475      .   S
    C254   O579      0.70122      .   S
    C246   O579      0.70122      .   S
    C250   O580      0.69475      .   S
    C258   O580      0.69475      .   S
    C250   O581      0.70120      .   S
    C242   O581      0.70120      .   S
    C214   O582      0.63546      .   S
    C358   O582      0.63546      .   S
    C214   O583      0.74460      .   S
    C222   O583      0.74460      .   S
    C212   O584      0.63542      .   S
    C356   O584      0.63542      .   S
    C212   O585      0.74452      .   S
    C220   O585      0.74452      .   S
    C208   O586      0.63513      .   S
    C352   O586      0.63513      .   S
    C208   O587      0.74456      .   S
    C216   O587      0.74456      .   S
    C256   O588      0.70117      .   S
    C216   O588      0.70117      .   S
    C260   O589      0.70115      .   S
    C220   O589      0.70115      .   S
    C258   O590      0.70117      .   S
    C218   O590      0.70117      .   S
    C262   O591      0.70117      .   S
    C222   O591      0.70117      .   S
    C246   O592      0.70179      .   S
    C238   O592      0.70179      .   S
    C242   O593      0.70182      .   S
    C234   O593      0.70182      .   S
    C240   O594      0.70181      .   S
    C232   O594      0.70181      .   S
    C244   O595      0.70183      .   S
    C236   O595      0.70183      .   S
    C218   O596      0.70244      .   S
    C226   O596      0.70244      .   S
    C220   O597      0.70241      .   S
    C228   O597      0.70241      .   S
    C222   O598      0.70236      .   S
    C230   O598      0.70236      .   S
    C216   O599      0.70242      .   S
    C224   O599      0.70242      .   S
    C238   O600      0.69593      .   S
    C230   O600      0.69593      .   S
    C238   O601      0.54434      .   S
    C78    O601      0.54434      .   S
    C234   O602      0.69593      .   S
    C226   O602      0.69593      .   S
    C234   O603      0.54428      .   S
    C74    O603      0.54428      .   S
    C236   O604      0.69596      .   S
    C228   O604      0.69596      .   S
    C236   O605      0.54426      .   S
    C76    O605      0.54426      .   S
    C232   O606      0.69592      .   S
    C224   O606      0.69592      .   S
    C232   O607      0.54425      .   S
    C72    O607      0.54425      .   S
    C230   O608      0.54431      .   S
    C70    O608      0.54431      .   S
    C226   O609      0.54430      .   S
    C66    O609      0.54430      .   S
    C228   O610      0.54431      .   S
    C68    O610      0.54431      .   S
    C224   O611      0.54429      .   S
    C64    O611      0.54429      .   S
    C342   O612      0.63992      .   S
    C182   O612      0.63992      .   S
    C338   O613      0.64015      .   S
    C178   O613      0.64015      .   S
    C340   O614      0.64016      .   S
    C180   O614      0.64016      .   S
    C336   O615      0.64017      .   S
    C176   O615      0.64017      .   S
    C346   O616      0.63711      .   S
    C178   O616      0.63711      .   S
    C350   O617      0.63712      .   S
    C182   O617      0.63712      .   S
    C344   O618      0.63711      .   S
    C176   O618      0.63711      .   S
    C348   O619      0.63712      .   S
    C180   O619      0.63712      .   S
    C182   O620      0.74888      .   S
    C190   O620      0.74888      .   S
    C178   O621      0.74865      .   S
    C186   O621      0.74865      .   S
    C180   O622      0.74862      .   S
    C188   O622      0.74862      .   S
    C176   O623      0.74862      .   S
    C184   O623      0.74862      .   S
    C58    O624      0.54461      .   S
    C202   O624      0.54461      .   S
    C62    O625      0.54453      .   S
    C206   O625      0.54453      .   S
    C60    O626      0.54458      .   S
    C204   O626      0.54458      .   S
    C56    O627      0.54458      .   S
    C200   O627      0.54458      .   S
    C186   O628      0.70208      .   S
    C202   O628      0.70208      .   S
    C186   O629      0.70190      .   S
    C194   O629      0.70190      .   S
    C190   O630      0.70207      .   S
    C206   O630      0.70207      .   S
    C190   O631      0.70190      .   S
    C198   O631      0.70190      .   S
    C188   O632      0.70207      .   S
    C204   O632      0.70207      .   S
    C188   O633      0.70195      .   S
    C196   O633      0.70195      .   S
    C184   O634      0.70207      .   S
    C200   O634      0.70207      .   S
    C184   O635      0.70187      .   S
    C192   O635      0.70187      .   S
    C50    O636      0.54448      .   S
    C194   O636      0.54448      .   S
    C54    O637      0.54448      .   S
    C198   O637      0.54448      .   S
    C52    O638      0.54448      .   S
    C196   O638      0.54448      .   S
    C48    O639      0.54447      .   S
    C192   O639      0.54447      .   S
    C206   O640      0.69556      .   S
    C295   O640      0.69556      .   S
    C202   O641      0.69547      .   S
    C291   O641      0.69547      .   S
    C204   O642      0.69549      .   S
    C293   O642      0.69549      .   S
    C200   O643      0.69549      .   S
    C289   O643      0.69549      .   S
    C194   O644      0.69549      .   S
    C299   O644      0.69549      .   S
    C198   O645      0.69548      .   S
    C303   O645      0.69548      .   S
    C192   O646      0.69548      .   S
    C297   O646      0.69548      .   S
    C196   O647      0.69548      .   S
    C301   O647      0.69548      .   S
    C291   O648      0.54448      .   S
    C99    O648      0.54448      .   S
    C291   O649      0.70190      .   S
    C283   O649      0.70190      .   S
    C295   O650      0.54447      .   S
    C103   O650      0.54447      .   S
    C295   O651      0.70189      .   S
    C287   O651      0.70189      .   S
    C293   O652      0.54447      .   S
    C101   O652      0.54447      .   S
    C293   O653      0.70187      .   S
    C285   O653      0.70187      .   S
    C289   O654      0.54448      .   S
    C97    O654      0.54448      .   S
    C289   O655      0.69728      .   S
    C281   O655      0.69728      .   S
    C299   O656      0.70207      .   S
    C283   O656      0.70207      .   S
    C299   O657      0.54461      .   S
    C107   O657      0.54461      .   S
    C303   O658      0.70207      .   S
    C287   O658      0.70207      .   S
    C303   O659      0.54453      .   S
    C111   O659      0.54453      .   S
    C301   O660      0.70207      .   S
    C285   O660      0.70207      .   S
    C301   O661      0.54458      .   S
    C109   O661      0.54458      .   S
    C297   O662      0.70199      .   S
    C281   O662      0.70199      .   S
    C297   O663      0.54457      .   S
    C105   O663      0.54457      .   S
    C281   O664      0.75341      .   S
    C273   O664      0.75341      .   S
    C287   O665      0.74864      .   S
    C279   O665      0.74864      .   S
    C283   O666      0.74863      .   S
    C275   O666      0.74863      .   S
    C285   O667      0.74865      .   S
    C277   O667      0.74865      .   S
    C275   O668      0.63711      .   S
    C395   O668      0.63711      .   S
    C275   O669      0.64014      .   S
    C387   O669      0.64014      .   S
    C279   O670      0.63712      .   S
    C399   O670      0.63712      .   S
    C279   O671      0.64013      .   S
    C391   O671      0.64013      .   S
    C273   O672      0.63713      .   S
    C393   O672      0.63713      .   S
    C273   O673      0.64013      .   S
    C385   O673      0.64013      .   S
    C277   O674      0.63713      .   S
    C397   O674      0.63713      .   S
    C277   O675      0.64014      .   S
    C389   O675      0.64014      .   S
    C399   O676      1.21906      .   S
    C7     O676      1.21906      .   S
    C395   O677      1.21906      .   S
    C3     O677      1.21906      .   S
    C397   O678      1.21880      .   S
    C5     O678      1.21880      .   S
    C393   O679      1.21900      .   S
    C1     O679      1.21900      .   S
    C391   O680      1.21760      .   S
    C13    O680      1.21760      .   S
    C387   O681      1.21761      .   S
    C9     O681      1.21761      .   S
    C389   O682      1.21793      .   S
    C15    O682      1.21793  1_565   S
    C385   O683      1.21794      .   S
    C11    O683      1.21794  1_565   S
    C19    O684      0.54430      .   S
    C131   O684      0.54430      .   S
    C23    O685      0.54430      .   S
    C135   O685      0.54430      .   S
    C17    O686      0.54431      .   S
    C129   O686      0.54431      .   S
    C21    O687      0.54431      .   S
    C133   O687      0.54431      .   S
    C31    O688      0.54374      .   S
    C143   O688      0.54374      .   S
    C27    O689      0.54433      .   S
    C139   O689      0.54433      .   S
    C29    O690      0.54015      .   S
    C141   O690      0.54015      .   S
    C25    O691      0.54435      .   S
    C137   O691      0.54435      .   S
    C131   O692      0.69592      .   S
    C139   O692      0.69592      .   S
    C131   O693      0.70242      .   S
    C123   O693      0.70242      .   S
    C135   O694      0.69626      .   S
    C143   O694      0.69626      .   S
    C135   O695      0.70243      .   S
    C127   O695      0.70243      .   S
    C129   O696      0.69593      .   S
    C137   O696      0.69593      .   S
    C129   O697      0.70243      .   S
    C121   O697      0.70243      .   S
    C133   O698      0.69833      .   S
    C141   O698      0.69833      .   S
    C133   O699      0.70243      .   S
    C125   O699      0.70243      .   S
    C141   O700      0.70379      .   S
    C149   O700      0.70379      .   S
    C143   O701      0.70207      .   S
    C151   O701      0.70207      .   S
    C139   O702      0.70180      .   S
    C147   O702      0.70180      .   S
    C137   O703      0.70180      .   S
    C145   O703      0.70180      .   S
    C123   O704      0.70115      .   S
    C163   O704      0.70115      .   S
    C123   O705      0.74454      .   S
    C115   O705      0.74454      .   S
    C127   O706      0.70115      .   S
    C167   O706      0.70115      .   S
    C127   O707      0.74452      .   S
    C119   O707      0.74452      .   S
    C121   O708      0.70118      .   S
    C161   O708      0.70118      .   S
    C121   O709      0.74455      .   S
    C113   O709      0.74455      .   S
    C125   O710      0.70114      .   S
    C165   O710      0.70114      .   S
    C125   O711      0.74454      .   S
    C117   O711      0.74454      .   S
    C307   O712      0.63543      .   S
    C115   O712      0.63543      .   S
    C307   O713      1.24457      .   S
    C1     O713      1.24457  1_545   S
    C311   O714      0.63544      .   S
    C119   O714      0.63544      .   S
    C311   O715      1.24428      .   S
    C5     O715      1.24428  1_545   S
    C309   O716      0.63547      .   S
    C117   O716      0.63547      .   S
    C309   O717      1.24458      .   S
    C7     O717      1.24458      .   S
    C305   O718      0.63544      .   S
    C113   O718      0.63544      .   S
    C305   O719      1.24448      .   S
    C3     O719      1.24448      .   S
    C151   O720      0.70122      .   S
    C159   O720      0.70122      .   S
    C151   O721      0.74999      .   S
    C271   O721      0.74999      .   S
    C147   O722      0.70123      .   S
    C155   O722      0.70123      .   S
    C147   O723      0.75016      .   S
    C267   O723      0.75016      .   S
    C149   O724      0.70125      .   S
    C157   O724      0.70125      .   S
    C149   O725      0.74998      .   S
    C269   O725      0.74998      .   S
    C145   O726      0.70124      .   S
    C153   O726      0.70124      .   S
    C145   O727      0.74999      .   S
    C265   O727      0.74999      .   S
    C165   O728      0.69471      .   S
    C157   O728      0.69471      .   S
    C165   O729      0.54437      .   S
    C45    O729      0.54437      .   S
    C161   O730      0.69474      .   S
    C153   O730      0.69474      .   S
    C161   O731      0.54101      .   S
    C41    O731      0.54101      .   S
    C163   O732      0.69473      .   S
    C155   O732      0.69473      .   S
    C163   O733      0.54441      .   S
    C43    O733      0.54441      .   S
    C167   O734      0.69472      .   S
    C159   O734      0.69472      .   S
    C167   O735      0.54432      .   S
    C47    O735      0.54432      .   S
    C119   O736      0.64665      .   S
    C319   O736      0.64665      .   S
    C115   O737      0.64664      .   S
    C315   O737      0.64664      .   S
    C113   O738      0.64670      .   S
    C313   O738      0.64670      .   S
    C117   O739      0.64671      .   S
    C317   O739      0.64671      .   S
    C157   O740      0.54317      .   S
    C33    O740      0.54317  1_455   S
    C153   O741      0.54293      .   S
    C37    O741      0.54293      .   S
    C159   O742      0.54318      .   S
    C35    O742      0.54318  1_455   S
    C155   O743      0.54319      .   S
    C39    O743      0.54319      .   S
    C383   O744      0.63602      .   S
    C271   O744      0.63602      .   S
    C383   O745      1.21235      .   S
    C13    O745      1.21235      .   S
    C379   O746      0.63561      .   S
    C267   O746      0.63561      .   S
    C379   O747      1.21237      .   S
    C9     O747      1.21237      .   S
    C381   O748      0.63612      .   S
    C269   O748      0.63612      .   S
    C381   O749      1.21198      .   S
    C15    O749      1.21198  1_565   S
    C377   O750      0.63606      .   S
    C265   O750      0.63606      .   S
    C377   O751      1.21201      .   S
    C11    O751      1.21201  1_565   S
    C267   O752      0.63987      .   S
    C375   O752      0.63987      .   S
    C271   O753      0.63961      .   S
    C371   O753      0.63961  1_455   S
    C269   O754      0.63952      .   S
    C369   O754      0.63952  1_455   S
    C265   O755      0.63956      .   S
    C373   O755      0.63956      .   S
    C373   O756      1.21567      .   S
    C5     O756      1.21567      .   S
    C369   O757      1.21566      .   S
    C1     O757      1.21566      .   S
    C375   O758      1.21558      .   S
    C7     O758      1.21558      .   S
    C371   O759      1.21559      .   S
    C3     O759      1.21559      .   S
    C313   O760      1.23619      .   S
    C9     O760      1.23619      .   S
    C315   O761      1.23572      .   S
    C11    O761      1.23572      .   S
    C317   O762      1.23618      .   S
    C13    O762      1.23618      .   S
    C319   O763      1.23571      .   S
    C15    O763      1.23571      .   S
    C5     O764      1.23591      .   S
    C365   O764      1.23591      .   S
    C5     O765      1.21195  1_545   S
    C335   O765      1.21195      .   S
    C5     O766      1.21826  1_545   S
    C343   O766      1.21826      .   S
    C7     O767      1.23619      .   S
    C367   O767      1.23619      .   S
    C7     O768      1.21240      .   S
    C333   O768      1.21240      .   S
    C7     O769      1.21757      .   S
    C341   O769      1.21757      .   S
    C3     O770      1.23543      .   S
    C363   O770      1.23543      .   S
    C3     O771      1.21239      .   S
    C329   O771      1.21239      .   S
    C3     O772      1.21764      .   S
    C337   O772      1.21764      .   S
    C1     O773      1.23564      .   S
    C361   O773      1.23564      .   S
    C1     O774      1.21193  1_545   S
    C331   O774      1.21193      .   S
    C1     O775      1.21799  1_545   S
    C339   O775      1.21799      .   S
    C13    O776      1.21559      .   S
    C325   O776      1.21559      .   S
    C13    O777      1.24452      .   S
    C359   O777      1.24452      .   S
    C13    O778      1.21903      .   S
    C349   O778      1.21903      .   S
    C9     O779      1.21559      .   S
    C321   O779      1.21559      .   S
    C9     O780      1.24454      .   S
    C355   O780      1.24454      .   S
    C9     O781      1.21904      .   S
    C345   O781      1.21904      .   S
    C11    O782      1.21566      .   S
    C323   O782      1.21566      .   S
    C11    O783      1.24455  1_565   S
    C353   O783      1.24455      .   S
    C11    O784      1.21894      .   S
    C347   O784      1.21894      .   S
    C15    O785      1.21566      .   S
    C327   O785      1.21566      .   S
    C15    O786      1.24444  1_565   S
    C357   O786      1.24444      .   S
    C15    O787      1.21893      .   S
    C351   O787      1.21893      .   S
    C363   O788      0.64757      .   S
    C211   O788      0.64757      .   S
    C367   O789      0.64603      .   S
    C215   O789      0.64603      .   S
    C361   O790      0.64671      .   S
    C209   O790      0.64671      .   S
    C365   O791      0.64612      .   S
    C213   O791      0.64612      .   S
    C325   O792      0.63954  1_655   S
    C169   O792      0.63954      .   S
    C321   O793      0.63957      .   S
    C173   O793      0.63957      .   S
    C327   O794      0.63953  1_655   S
    C171   O794      0.63953      .   S
    C323   O795      0.63956      .   S
    C175   O795      0.63956      .   S
    C81    O796      0.54344      .   S
    C253   O796      0.54344      .   S
    C85    O797      0.54318  1_655   S
    C249   O797      0.54318      .   S
    C87    O798      0.54322  1_655   S
    C251   O798      0.54322      .   S
    C83    O799      0.54322      .   S
    C255   O799      0.54322      .   S
    C95    O800      0.54437      .   S
    C263   O800      0.54437      .   S
    C91    O801      0.54436      .   S
    C259   O801      0.54436      .   S
    C93    O802      0.54441      .   S
    C261   O802      0.54441      .   S
    C89    O803      0.54442      .   S
    C257   O803      0.54442      .   S
    C169   O804      0.63606      .   S
    C329   O804      0.63606      .   S
    C169   O805      0.74997      .   S
    C241   O805      0.74997      .   S
    C173   O806      0.63608      .   S
    C333   O806      0.63608      .   S
    C173   O807      0.74996      .   S
    C245   O807      0.74996      .   S
    C171   O808      0.63610      .   S
    C331   O808      0.63610      .   S
    C171   O809      0.74998      .   S
    C243   O809      0.74998      .   S
    C175   O810      0.63608      .   S
    C335   O810      0.63608      .   S
    C175   O811      0.75000      .   S
    C247   O811      0.75000      .   S
    C249   O812      0.69472      .   S
    C257   O812      0.69472      .   S
    C249   O813      0.70121      .   S
    C241   O813      0.70121      .   S
    C253   O814      0.69471      .   S
    C261   O814      0.69471      .   S
    C253   O815      0.70121      .   S
    C245   O815      0.70121      .   S
    C255   O816      0.69476      .   S
    C263   O816      0.69476      .   S
    C255   O817      0.70115      .   S
    C247   O817      0.70115      .   S
    C251   O818      0.69475      .   S
    C259   O818      0.69475      .   S
    C251   O819      0.70122      .   S
    C243   O819      0.70122      .   S
    C215   O820      0.63568      .   S
    C359   O820      0.63568      .   S
    C215   O821      0.74497      .   S
    C223   O821      0.74497      .   S
    C211   O822      0.63544      .   S
    C355   O822      0.63544      .   S
    C211   O823      0.74403      .   S
    C219   O823      0.74403      .   S
    C213   O824      0.63560      .   S
    C357   O824      0.63560      .   S
    C213   O825      0.74489      .   S
    C221   O825      0.74489      .   S
    C209   O826      0.63542      .   S
    C353   O826      0.63542      .   S
    C209   O827      0.74454      .   S
    C217   O827      0.74454      .   S
    C263   O828      0.70115      .   S
    C223   O828      0.70115      .   S
    C259   O829      0.70090      .   S
    C219   O829      0.70090      .   S
    C261   O830      0.70116      .   S
    C221   O830      0.70116      .   S
    C257   O831      0.70116      .   S
    C217   O831      0.70116      .   S
    C241   O832      0.70179      .   S
    C233   O832      0.70179      .   S
    C245   O833      0.70180      .   S
    C237   O833      0.70180      .   S
    C247   O834      0.70184      .   S
    C239   O834      0.70184      .   S
    C243   O835      0.70180      .   S
    C235   O835      0.70180      .   S
    C219   O836      0.70319      .   S
    C227   O836      0.70319      .   S
    C223   O837      0.70246      .   S
    C231   O837      0.70246      .   S
    C217   O838      0.70239      .   S
    C225   O838      0.70239      .   S
    C221   O839      0.70240      .   S
    C229   O839      0.70240      .   S
    C237   O840      0.69592      .   S
    C229   O840      0.69592      .   S
    C237   O841      0.54429      .   S
    C77    O841      0.54429      .   S
    C233   O842      0.69592      .   S
    C225   O842      0.69592      .   S
    C233   O843      0.54437      .   S
    C73    O843      0.54437      .   S
    C239   O844      0.69593      .   S
    C231   O844      0.69593      .   S
    C239   O845      0.54425      .   S
    C79    O845      0.54425      .   S
    C235   O846      0.69593      .   S
    C227   O846      0.69593      .   S
    C235   O847      0.54434      .   S
    C75    O847      0.54434      .   S
    C227   O848      0.54428      .   S
    C67    O848      0.54428      .   S
    C231   O849      0.54428      .   S
    C71    O849      0.54428      .   S
    C229   O850      0.54431      .   S
    C69    O850      0.54431      .   S
    C225   O851      0.54431      .   S
    C65    O851      0.54431      .   S
    C341   O852      0.64020      .   S
    C181   O852      0.64020      .   S
    C337   O853      0.64013      .   S
    C177   O853      0.64013      .   S
    C343   O854      0.64011      .   S
    C183   O854      0.64011      .   S
    C339   O855      0.64011      .   S
    C179   O855      0.64011      .   S
    C349   O856      0.63711      .   S
    C181   O856      0.63711      .   S
    C345   O857      0.63711      .   S
    C177   O857      0.63711      .   S
    C347   O858      0.63713      .   S
    C179   O858      0.63713      .   S
    C351   O859      0.63713      .   S
    C183   O859      0.63713      .   S
    C181   O860      0.74857      .   S
    C189   O860      0.74857      .   S
    C177   O861      0.74547      .   S
    C185   O861      0.74547      .   S
    C179   O862      0.74867      .   S
    C187   O862      0.74867      .   S
    C183   O863      0.74858      .   S
    C191   O863      0.74858      .   S
    C61    O864      0.54456      .   S
    C205   O864      0.54456      .   S
    C57    O865      0.54456      .   S
    C201   O865      0.54456      .   S
    C185   O866      0.70217      .   S
    C201   O866      0.70217      .   S
    C185   O867      0.70500      .   S
    C193   O867      0.70500      .   S
    C59    O868      0.54460      .   S
    C203   O868      0.54460      .   S
    C63    O869      0.54459      .   S
    C207   O869      0.54459      .   S
    C189   O870      0.70207      .   S
    C205   O870      0.70207      .   S
    C189   O871      0.70194      .   S
    C197   O871      0.70194      .   S
    C191   O872      0.70208      .   S
    C207   O872      0.70208      .   S
    C191   O873      0.70189      .   S
    C199   O873      0.70189      .   S
    C187   O874      0.70207      .   S
    C203   O874      0.70207      .   S
    C187   O875      0.70189      .   S
    C195   O875      0.70189      .   S
    C53    O876      0.54447      .   S
    C197   O876      0.54447      .   S
    C49    O877      0.54448      .   S
    C193   O877      0.54448      .   S
    C55    O878      0.54447      .   S
    C199   O878      0.54447      .   S
    C51    O879      0.54447      .   S
    C195   O879      0.54447      .   S
    C312   O880      1.39874      .   S
    C2     O880      1.39874      .   S
    C313   O881      1.39870      .   S
    C3     O881      1.39870      .   S
    C314   O882      1.39940      .   S
    C0     O882      1.39940  1_545   S
    C315   O883      1.39933      .   S
    C1     O883      1.39933  1_545   S
    C316   O884      1.39877      .   S
    C6     O884      1.39877      .   S
    C317   O885      1.39874      .   S
    C7     O885      1.39874      .   S
    C318   O886      1.39967      .   S
    C4     O886      1.39967  1_545   S
    C319   O887      1.39927      .   S
    C5     O887      1.39927  1_545   S
    C360   O888      1.39936      .   S
    C10    O888      1.39936  1_565   S
    C361   O889      1.39942      .   S
    C11    O889      1.39942  1_565   S
    C362   O890      1.39870      .   S
    C8     O890      1.39870      .   S
    C363   O891      1.39849      .   S
    C9     O891      1.39849      .   S
    C364   O892      1.39681      .   S
    C14    O892      1.39681  1_565   S
    C365   O893      1.39939      .   S
    C15    O893      1.39939  1_565   S
    C366   O894      1.39868      .   S
    C12    O894      1.39868      .   S
    C367   O895      1.39869      .   S
    C13    O895      1.39869      .   S
