# CIF file generated by openbabel 2.4.90, see http://openbabel.sf.net
data_I
_chemical_name_common ''
_cell_length_a 19.314
_cell_length_b 21.4
_cell_length_c 26.004
_cell_angle_alpha 57.185
_cell_angle_beta 75.071
_cell_angle_gamma 69.375
_space_group_name_H-M_alt 'P 1'
_space_group_name_Hall 'P 1'
loop_
    _symmetry_equiv_pos_as_xyz
    x,y,z
loop_
    _atom_site_label
    _atom_site_type_symbol
    _atom_site_fract_x
    _atom_site_fract_y
    _atom_site_fract_z
    _atom_site_occupancy
    Zr0     Zr   0.14567   0.00264   0.24676   1.000
    Zr1     Zr   0.14562   0.00262   0.74683   1.000
    Zr2     Zr   0.14565   0.50257   0.24686   1.000
    Zr3     Zr   0.14563   0.50263   0.74681   1.000
    Zr4     Zr   0.64567   0.00264   0.24675   1.000
    Zr5     Zr   0.64562   0.00263   0.74680   1.000
    Zr6     Zr   0.64566   0.50257   0.24685   1.000
    Zr7     Zr   0.64563   0.50264   0.74681   1.000
    Zr8     Zr   0.35446   0.49743   0.25317   1.000
    Zr9     Zr   0.35444   0.49750   0.75312   1.000
    Zr10    Zr   0.35447   0.99744   0.25314   1.000
    Zr11    Zr   0.35441   0.99743   0.75321   1.000
    Zr12    Zr   0.85446   0.49744   0.25316   1.000
    Zr13    Zr   0.85444   0.49750   0.75312   1.000
    Zr14    Zr   0.85447   0.99745   0.25314   1.000
    Zr15    Zr   0.85442   0.99744   0.75321   1.000
    N16     N    0.37186   0.27371   0.69484   1.000
    N17     N    0.12818   0.72637   0.80510   1.000
    N18     N    0.87193   0.77375   0.69487   1.000
    N19     N    0.37196   0.77370   0.19487   1.000
    N20     N    0.75007   0.25009   0.99995   1.000
    N21     N    0.87197   0.77370   0.19486   1.000
    N22     N    0.62822   0.72636   0.30509   1.000
    N23     N    0.87187   0.27371   0.69483   1.000
    N24     N    0.25003   0.75002   0.49995   1.000
    N25     N    0.12816   0.22632   0.30510   1.000
    N26     N    0.62819   0.72637   0.80510   1.000
    N27     N    0.62813   0.22636   0.80510   1.000
    N28     N    0.12812   0.22636   0.80511   1.000
    N29     N    0.37192   0.77374   0.69488   1.000
    N30     N    0.25002   0.74999   0.00001   1.000
    N31     N    0.75005   0.25005   0.50002   1.000
    N32     N    0.75004   0.75003   0.49995   1.000
    N33     N    0.37190   0.27370   0.19486   1.000
    N34     N    0.25005   0.25005   0.49996   1.000
    N35     N    0.75003   0.74999   0.00001   1.000
    N36     N    0.87191   0.27370   0.19470   1.000
    N37     N    0.62817   0.22632   0.30510   1.000
    N38     N    0.25006   0.25008   0.99992   1.000
    N39     N    0.12822   0.72636   0.30509   1.000
    C40     C    0.47809   0.60424   0.21523   1.000
    O41     O    0.44246   0.66176   0.20759   1.000
    O42     O    0.53350   0.57940   0.22525   1.000
    O43     O    0.43686   0.57164   0.22358   1.000
    C44     C    0.97810   0.60424   0.21526   1.000
    O45     O    0.03350   0.57940   0.22527   1.000
    O46     O    0.93686   0.57164   0.22361   1.000
    O47     O    0.94246   0.66176   0.20760   1.000
    C48     C    0.24315   0.57817   0.29175   1.000
    O49     O    0.28425   0.55748   0.28525   1.000
    O50     O    0.20409   0.62755   0.29710   1.000
    O51     O    0.20922   0.55550   0.27657   1.000
    O52     O    0.26142   0.55422   0.27815   1.000
    C53     C    0.02202   0.39575   0.28476   1.000
    O54     O    0.96662   0.42060   0.27475   1.000
    O55     O    0.06325   0.42836   0.27640   1.000
    O56     O    0.05766   0.33824   0.29239   1.000
    C57     C    0.52202   0.39575   0.28476   1.000
    O58     O    0.55766   0.33824   0.29239   1.000
    O59     O    0.46662   0.42060   0.27475   1.000
    O60     O    0.56326   0.42836   0.27640   1.000
    C61     C    0.25697   0.42184   0.20796   1.000
    O62     O    0.29602   0.37248   0.20263   1.000
    O63     O    0.21586   0.44254   0.21461   1.000
    O64     O    0.29089   0.44451   0.22330   1.000
    O65     O    0.23869   0.44579   0.22172   1.000
    C66     C    0.25121   0.39410   0.35746   1.000
    O67     O    0.29124   0.42226   0.33006   1.000
    O68     O    0.21060   0.42320   0.32682   1.000
    O69     O    0.25083   0.34559   0.40549   1.000
    C70     C    0.75121   0.39410   0.35745   1.000
    O71     O    0.79125   0.42226   0.33005   1.000
    O72     O    0.71061   0.42321   0.32681   1.000
    O73     O    0.75084   0.34559   0.40550   1.000
    C74     C    0.75698   0.42185   0.20795   1.000
    O75     O    0.71587   0.44254   0.21460   1.000
    O76     O    0.79090   0.44451   0.22329   1.000
    O77     O    0.73870   0.44579   0.22171   1.000
    O78     O    0.79603   0.37249   0.20259   1.000
    C79     C    0.74892   0.60591   0.14256   1.000
    O80     O    0.70888   0.57775   0.16996   1.000
    O81     O    0.74928   0.65443   0.09452   1.000
    O82     O    0.78952   0.57681   0.17319   1.000
    C83     C    0.74315   0.57818   0.29205   1.000
    O84     O    0.70923   0.55551   0.27672   1.000
    O85     O    0.76143   0.55422   0.27829   1.000
    O86     O    0.70410   0.62755   0.29736   1.000
    O87     O    0.78426   0.55748   0.28540   1.000
    C88     C    0.24891   0.60591   0.14257   1.000
    O89     O    0.20887   0.57774   0.16997   1.000
    O90     O    0.24927   0.65443   0.09453   1.000
    O91     O    0.28951   0.57680   0.17320   1.000
    C92     C    0.97807   0.10428   0.21515   1.000
    O93     O    0.93684   0.07167   0.22354   1.000
    O94     O    0.94242   0.16179   0.20749   1.000
    O95     O    0.03349   0.07945   0.22514   1.000
    C96     C    0.25706   0.92193   0.20784   1.000
    O97     O    0.29097   0.94457   0.22320   1.000
    O98     O    0.23877   0.94587   0.22161   1.000
    O99     O    0.29611   0.87254   0.20256   1.000
    O100    O    0.21594   0.94262   0.21450   1.000
    C101    C    0.74308   0.07814   0.29176   1.000
    O102    O    0.78420   0.05745   0.28526   1.000
    O103    O    0.70918   0.05551   0.27632   1.000
    O104    O    0.76138   0.05421   0.27791   1.000
    O105    O    0.70403   0.12751   0.29722   1.000
    C106    C    0.74896   0.10600   0.14251   1.000
    O107    O    0.78955   0.07688   0.17315   1.000
    O108    O    0.74932   0.15452   0.09447   1.000
    O109    O    0.70892   0.07782   0.16989   1.000
    C110    C    0.02207   0.89580   0.28472   1.000
    O111    O    0.05771   0.83829   0.29237   1.000
    O112    O    0.96665   0.92064   0.27473   1.000
    O113    O    0.06330   0.92842   0.27632   1.000
    C114    C    0.24895   0.10599   0.14251   1.000
    O115    O    0.28954   0.07688   0.17315   1.000
    O116    O    0.24931   0.15451   0.09446   1.000
    O117    O    0.20891   0.07782   0.16989   1.000
    C118    C    0.24307   0.07814   0.29203   1.000
    O119    O    0.20917   0.05550   0.27668   1.000
    O120    O    0.26137   0.05421   0.27828   1.000
    O121    O    0.20402   0.12751   0.29735   1.000
    O122    O    0.28420   0.05744   0.28538   1.000
    C123    C    0.52207   0.89581   0.28472   1.000
    O124    O    0.46665   0.92064   0.27472   1.000
    O125    O    0.55772   0.83829   0.29237   1.000
    O126    O    0.56330   0.92842   0.27633   1.000
    C127    C    0.75707   0.92193   0.20782   1.000
    O128    O    0.79097   0.94457   0.22317   1.000
    O129    O    0.73877   0.94587   0.22157   1.000
    O130    O    0.79612   0.87254   0.20254   1.000
    O131    O    0.71594   0.94262   0.21448   1.000
    C132    C    0.25118   0.89408   0.35736   1.000
    O133    O    0.21059   0.92320   0.32673   1.000
    O134    O    0.25080   0.84557   0.40542   1.000
    O135    O    0.29122   0.92226   0.32996   1.000
    C136    C    0.47807   0.10428   0.21517   1.000
    O137    O    0.43684   0.07167   0.22355   1.000
    O138    O    0.53349   0.07945   0.22516   1.000
    O139    O    0.44242   0.16179   0.20755   1.000
    C140    C    0.75118   0.89408   0.35738   1.000
    O141    O    0.75081   0.84557   0.40542   1.000
    O142    O    0.79122   0.92226   0.33000   1.000
    O143    O    0.71060   0.92320   0.32674   1.000
    C144    C    0.02199   0.39582   0.78473   1.000
    O145    O    0.96659   0.42066   0.77472   1.000
    O146    O    0.05763   0.33830   0.79238   1.000
    O147    O    0.06323   0.42842   0.77636   1.000
    C148    C    0.52199   0.39582   0.78473   1.000
    O149    O    0.55763   0.33830   0.79237   1.000
    O150    O    0.46659   0.42067   0.77472   1.000
    O151    O    0.56323   0.42842   0.77636   1.000
    C152    C    0.75695   0.42190   0.70792   1.000
    O153    O    0.71584   0.44260   0.71457   1.000
    O154    O    0.79600   0.37252   0.70260   1.000
    O155    O    0.79087   0.44457   0.72325   1.000
    O156    O    0.73867   0.44585   0.72168   1.000
    C157    C    0.25694   0.42190   0.70792   1.000
    O158    O    0.21583   0.44259   0.71457   1.000
    O159    O    0.29600   0.37252   0.70261   1.000
    O160    O    0.29087   0.44456   0.72326   1.000
    O161    O    0.23866   0.44585   0.72168   1.000
    C162    C    0.74889   0.60597   0.64252   1.000
    O163    O    0.70885   0.57781   0.66992   1.000
    O164    O    0.78949   0.57687   0.67315   1.000
    O165    O    0.74927   0.65448   0.59447   1.000
    C166    C    0.25118   0.39416   0.85741   1.000
    O167    O    0.25081   0.34564   0.90539   1.000
    O168    O    0.29122   0.42233   0.83001   1.000
    O169    O    0.21058   0.42326   0.82678   1.000
    C170    C    0.24889   0.60597   0.64252   1.000
    O171    O    0.28949   0.57687   0.67315   1.000
    O172    O    0.20885   0.57781   0.66992   1.000
    O173    O    0.24926   0.65448   0.59447   1.000
    C174    C    0.74313   0.57823   0.79200   1.000
    O175    O    0.70920   0.55556   0.77667   1.000
    O176    O    0.76141   0.55428   0.77825   1.000
    O177    O    0.78424   0.55753   0.78536   1.000
    O178    O    0.70407   0.62759   0.79732   1.000
    C179    C    0.97807   0.60431   0.71523   1.000
    O180    O    0.03347   0.57946   0.72523   1.000
    O181    O    0.93684   0.57171   0.72358   1.000
    O182    O    0.94243   0.66182   0.70759   1.000
    C183    C    0.47807   0.60431   0.71520   1.000
    O184    O    0.53347   0.57946   0.72522   1.000
    O185    O    0.43683   0.57171   0.72357   1.000
    O186    O    0.44243   0.66182   0.70757   1.000
    C187    C    0.75119   0.39416   0.85741   1.000
    O188    O    0.71059   0.42327   0.82677   1.000
    O189    O    0.75082   0.34565   0.90545   1.000
    O190    O    0.79122   0.42233   0.83001   1.000
    C191    C    0.24312   0.57822   0.79199   1.000
    O192    O    0.20406   0.62759   0.79732   1.000
    O193    O    0.20920   0.55556   0.77665   1.000
    O194    O    0.26140   0.55427   0.77823   1.000
    O195    O    0.28423   0.55753   0.78535   1.000
    C196    C    0.02202   0.89579   0.78479   1.000
    O197    O    0.06325   0.92841   0.77641   1.000
    O198    O    0.96660   0.92063   0.77480   1.000
    O199    O    0.05767   0.83829   0.79242   1.000
    C200    C    0.52202   0.89580   0.78479   1.000
    O201    O    0.55767   0.83829   0.79242   1.000
    O202    O    0.56325   0.92841   0.77640   1.000
    O203    O    0.46660   0.92063   0.77480   1.000
    C204    C    0.24301   0.07814   0.79212   1.000
    O205    O    0.20397   0.12753   0.79741   1.000
    O206    O    0.20911   0.05550   0.77676   1.000
    O207    O    0.26131   0.05420   0.77836   1.000
    O208    O    0.28414   0.05744   0.78547   1.000
    C209    C    0.24890   0.10599   0.64258   1.000
    O210    O    0.24927   0.15450   0.59445   1.000
    O211    O    0.20886   0.07781   0.66996   1.000
    O212    O    0.28949   0.07687   0.67322   1.000
    C213    C    0.75113   0.89407   0.85746   1.000
    O214    O    0.75077   0.84556   0.90550   1.000
    O215    O    0.71054   0.92319   0.82681   1.000
    O216    O    0.79117   0.92225   0.83007   1.000
    C217    C    0.47802   0.10427   0.71523   1.000
    O218    O    0.53344   0.07944   0.72522   1.000
    O219    O    0.44237   0.16178   0.70758   1.000
    O220    O    0.43679   0.07166   0.72362   1.000
    C221    C    0.97802   0.10427   0.71523   1.000
    O222    O    0.03344   0.07944   0.72522   1.000
    O223    O    0.93679   0.07166   0.72362   1.000
    O224    O    0.94238   0.16179   0.70758   1.000
    C225    C    0.25112   0.89407   0.85746   1.000
    O226    O    0.21054   0.92319   0.82682   1.000
    O227    O    0.29117   0.92225   0.83007   1.000
    O228    O    0.25076   0.84555   0.90550   1.000
    C229    C    0.25701   0.92193   0.70791   1.000
    O230    O    0.29606   0.87255   0.70260   1.000
    O231    O    0.29091   0.94457   0.72327   1.000
    O232    O    0.23871   0.94586   0.72168   1.000
    O233    O    0.21588   0.94262   0.71456   1.000
    C234    C    0.75702   0.92193   0.70791   1.000
    O235    O    0.71589   0.94262   0.71455   1.000
    O236    O    0.79607   0.87256   0.70260   1.000
    O237    O    0.79092   0.94457   0.72327   1.000
    O238    O    0.73872   0.94587   0.72167   1.000
    C239    C    0.74891   0.10599   0.64258   1.000
    O240    O    0.78949   0.07687   0.67322   1.000
    O241    O    0.70887   0.07781   0.66996   1.000
    O242    O    0.74928   0.15450   0.59454   1.000
    C243    C    0.74302   0.07814   0.79210   1.000
    O244    O    0.70398   0.12753   0.79739   1.000
    O245    O    0.78415   0.05745   0.78546   1.000
    O246    O    0.70912   0.05550   0.77674   1.000
    O247    O    0.76132   0.05421   0.77834   1.000
loop_
    _geom_bond_atom_site_label_1
    _geom_bond_atom_site_label_2
    _geom_bond_distance
    _geom_bond_site_symmetry_2
    _ccdc_geom_bond_type
    C40    O41       1.11220      .   S
    N19    O41       2.18564      .   S
    C40    O42       1.04322      .   S
    Zr6    O42       2.19727      .   S
    C40    O43       1.14288      .   S
    Zr8    O43       2.33922      .   S
    C44    O45       1.04311  1_655   S
    Zr2    O45       2.19721      .   S
    C44    O46       1.14284      .   S
    Zr12   O46       2.33942      .   S
    C44    O47       1.11208      .   S
    N21    O47       2.18547      .   S
    C48    O49       0.78701      .   S
    Zr8    O49       1.88077      .   S
    C48    O50       1.11732      .   S
    N39    O50       2.19048      .   S
    C48    O51       1.17698      .   S
    Zr2    O51       2.40934      .   S
    C48    O52       0.71920      .   S
    Zr8    O52       1.96043      .   S
    C53    O54       1.04311  1_455   S
    Zr12   O54       2.19722      .   S
    C53    O55       1.14289      .   S
    Zr2    O55       2.33951      .   S
    C53    O56       1.11210      .   S
    N25    O56       2.18554      .   S
    C57    O58       1.11210      .   S
    N37    O58       2.18553      .   S
    C57    O59       1.04313      .   S
    Zr8    O59       2.19724      .   S
    C57    O60       1.14288      .   S
    Zr6    O60       2.33955      .   S
    C61    O62       1.11687      .   S
    N33    O62       2.18753      .   S
    C61    O63       0.78804      .   S
    Zr2    O63       1.88332      .   S
    C61    O64       1.17973      .   S
    Zr8    O64       2.41214      .   S
    C61    O65       0.72217      .   S
    Zr2    O65       1.96218      .   S
    C66    O67       1.02364      .   S
    Zr8    O67       2.17168      .   S
    C66    O68       1.03803      .   S
    Zr2    O68       2.19025      .   S
    C66    O69       1.11039      .   S
    N34    O69       2.18505      .   S
    C70    O71       1.02362      .   S
    Zr12   O71       2.17169      .   S
    C70    O72       1.03807      .   S
    Zr6    O72       2.19031      .   S
    C70    O73       1.11063      .   S
    N31    O73       2.18581      .   S
    C74    O75       0.78805      .   S
    Zr6    O75       1.88326      .   S
    C74    O76       1.17966      .   S
    Zr12   O76       2.41205      .   S
    C74    O77       0.72211      .   S
    Zr6    O77       1.96219      .   S
    C74    O78       1.11735      .   S
    N36    O78       2.18890      .   S
    C79    O80       1.02373      .   S
    Zr6    O80       2.17178      .   S
    C79    O81       1.11061      .   S
    N35    O81       2.18568      .   S
    C79    O82       1.03804      .   S
    Zr12   O82       2.19027      .   S
    C83    O84       1.17975      .   S
    Zr6    O84       2.41224      .   S
    C83    O85       0.72216      .   S
    Zr12   O85       1.96213      .   S
    C83    O86       1.11686      .   S
    N22    O86       2.18745      .   S
    C83    O87       0.78802      .   S
    Zr12   O87       1.88330      .   S
    C88    O89       1.02371      .   S
    Zr2    O89       2.17178      .   S
    C88    O90       1.11062      .   S
    N30    O90       2.18578      .   S
    C88    O91       1.03800      .   S
    Zr8    O91       2.19034      .   S
    C92    O93       1.14264      .   S
    Zr14   O93       2.33893  1_565   S
    C92    O94       1.11191      .   S
    N36    O94       2.18476      .   S
    C92    O95       1.04327  1_655   S
    Zr0    O95       2.19761      .   S
    C96    O97       1.17949      .   S
    Zr10   O97       2.41139      .   S
    C96    O98       0.72221      .   S
    Zr0    O98       1.96292  1_545   S
    C96    O99       1.11678      .   S
    N19    O99       2.18728      .   S
    C96    O100      0.78835      .   S
    Zr0    O100      1.88372  1_545   S
    C101   O102      0.78727      .   S
    Zr14   O102      1.88112  1_565   S
    C101   O103      1.18080      .   S
    Zr4    O103      2.40453      .   S
    C101   O104      0.72359      .   S
    Zr14   O104      1.95858  1_565   S
    C101   O105      1.11860      .   S
    N37    O105      2.18907      .   S
    C106   O107      1.03795      .   S
    Zr14   O107      2.19050  1_565   S
    C106   O108      1.11064      .   S
    N20    O108      2.18582  1_556   S
    C106   O109      1.02379      .   S
    Zr4    O109      2.17178      .   S
    C110   O111      1.11209      .   S
    N39    O111      2.18556      .   S
    C110   O112      1.04323  1_455   S
    Zr14   O112      2.19751      .   S
    C110   O113      1.14268      .   S
    Zr0    O113      2.33907  1_545   S
    C114   O115      1.03796      .   S
    Zr10   O115      2.19054  1_565   S
    C114   O116      1.11075      .   S
    N38    O116      2.18623  1_556   S
    C114   O117      1.02379      .   S
    Zr0    O117      2.17182      .   S
    C118   O119      1.17913      .   S
    Zr0    O119      2.41103      .   S
    C118   O120      0.72186      .   S
    Zr10   O120      1.96269  1_565   S
    C118   O121      1.11696      .   S
    N25    O121      2.18749      .   S
    C118   O122      0.78836      .   S
    Zr10   O122      1.88307  1_565   S
    C123   O124      1.04335      .   S
    Zr10   O124      2.19750      .   S
    C123   O125      1.11209      .   S
    N22    O125      2.18557      .   S
    C123   O126      1.14279      .   S
    Zr4    O126      2.33899  1_545   S
    C127   O128      1.17931      .   S
    Zr14   O128      2.41200      .   S
    C127   O129      0.72199      .   S
    Zr4    O129      1.96328  1_545   S
    C127   O130      1.11666      .   S
    N21    O130      2.18723      .   S
    C127   O131      0.78844      .   S
    Zr4    O131      1.88385  1_545   S
    C132   O133      1.03767      .   S
    Zr0    O133      2.19013  1_545   S
    C132   O134      1.11090      .   S
    N24    O134      2.18607      .   S
    C132   O135      1.02386      .   S
    Zr10   O135      2.17153      .   S
    C136   O137      1.14272      .   S
    Zr10   O137      2.33902  1_565   S
    C136   O138      1.04331      .   S
    Zr4    O138      2.19756      .   S
    C136   O139      1.11212      .   S
    N33    O139      2.18556      .   S
    C140   O141      1.11067      .   S
    N32    O141      2.18593      .   S
    C140   O142      1.02379      .   S
    Zr14   O142      2.17181      .   S
    C140   O143      1.03789      .   S
    Zr4    O143      2.19048  1_545   S
    C144   O145      1.04310  1_455   S
    Zr13   O145      2.19721      .   S
    C144   O146      1.11209      .   S
    N28    O146      2.18551      .   S
    C144   O147      1.14287      .   S
    Zr3    O147      2.33951      .   S
    C148   O149      1.11211      .   S
    N27    O149      2.18556      .   S
    C148   O150      1.04314      .   S
    Zr9    O150      2.19726      .   S
    C148   O151      1.14289      .   S
    Zr7    O151      2.33955      .   S
    C152   O153      0.78804      .   S
    Zr7    O153      1.88334      .   S
    C152   O154      1.11698      .   S
    N23    O154      2.18787      .   S
    C152   O155      1.17973      .   S
    Zr13   O155      2.41213      .   S
    C152   O156      0.72217      .   S
    Zr7    O156      1.96219      .   S
    C157   O158      0.78802      .   S
    Zr3    O158      1.88324      .   S
    C157   O159      1.11699      .   S
    N16    O159      2.18785      .   S
    C157   O160      1.17971      .   S
    Zr9    O160      2.41212      .   S
    C157   O161      0.72214      .   S
    Zr3    O161      1.96212      .   S
    C162   O163      1.02368      .   S
    Zr7    O163      2.17176      .   S
    C162   O164      1.03800      .   S
    Zr13   O164      2.19025      .   S
    C162   O165      1.11064      .   S
    N32    O165      2.18584      .   S
    C166   O167      1.10966      .   S
    N38    O167      2.18606      .   S
    C166   O168      1.02367      .   S
    Zr9    O168      2.17172      .   S
    C166   O169      1.03801      .   S
    Zr3    O169      2.19030      .   S
    C170   O171      1.03802      .   S
    Zr9    O171      2.19028      .   S
    C170   O172      1.02368      .   S
    Zr3    O172      2.17175      .   S
    C170   O173      1.11063      .   S
    N24    O173      2.18580      .   S
    C174   O175      1.17952      .   S
    Zr7    O175      2.41194      .   S
    C174   O176      0.72194      .   S
    Zr13   O176      1.96200      .   S
    C174   O177      0.78795      .   S
    Zr13   O177      1.88309      .   S
    C174   O178      1.11688      .   S
    N26    O178      2.18767      .   S
    C179   O180      1.04310  1_655   S
    Zr3    O180      2.19719      .   S
    C179   O181      1.14283      .   S
    Zr13   O181      2.33942      .   S
    C179   O182      1.11208      .   S
    N18    O182      2.18550      .   S
    C183   O184      1.04320      .   S
    Zr7    O184      2.19727      .   S
    C183   O185      1.14276      .   S
    Zr9    O185      2.33940      .   S
    C183   O186      1.11212      .   S
    N29    O186      2.18568      .   S
    C187   O188      1.03804      .   S
    Zr7    O188      2.19026      .   S
    C187   O189      1.11059      .   S
    N20    O189      2.18569      .   S
    C187   O190      1.02365      .   S
    Zr13   O190      2.17168      .   S
    C191   O192      1.11687      .   S
    N17    O192      2.18766      .   S
    C191   O193      1.17986      .   S
    Zr3    O193      2.41151      .   S
    C191   O194      0.72231      .   S
    Zr9    O194      1.96179      .   S
    C191   O195      0.78795      .   S
    Zr9    O195      1.88309      .   S
    C196   O197      1.14272      .   S
    Zr1    O197      2.33893  1_545   S
    C196   O198      1.04328  1_455   S
    Zr15   O198      2.19752      .   S
    C196   O199      1.11215      .   S
    N17    O199      2.18565      .   S
    C200   O201      1.11215      .   S
    N26    O201      2.18561      .   S
    C200   O202      1.14269      .   S
    Zr5    O202      2.33890  1_545   S
    C200   O203      1.04331      .   S
    Zr11   O203      2.19757      .   S
    C204   O205      1.11680      .   S
    N28    O205      2.18733      .   S
    C204   O206      1.17942      .   S
    Zr1    O206      2.41126      .   S
    C204   O207      0.72217      .   S
    Zr11   O207      1.96292  1_565   S
    C204   O208      0.78835      .   S
    Zr11   O208      1.88371  1_565   S
    C209   O210      1.11205      .   S
    N34    O210      2.18530      .   S
    C209   O211      1.02379      .   S
    Zr1    O211      2.17185      .   S
    C209   O212      1.03797      .   S
    Zr11   O212      2.19048  1_565   S
    C213   O214      1.11060      .   S
    N35    O214      2.18575  1_554   S
    C213   O215      1.03804      .   S
    Zr5    O215      2.19086  1_545   S
    C213   O216      1.02383      .   S
    Zr15   O216      2.17186      .   S
    C217   O218      1.04329      .   S
    Zr5    O218      2.19753      .   S
    C217   O219      1.11206      .   S
    N16    O219      2.18535      .   S
    C217   O220      1.14275      .   S
    Zr11   O220      2.33904  1_565   S
    C221   O222      1.04330  1_655   S
    Zr1    O222      2.19755      .   S
    C221   O223      1.14273      .   S
    Zr15   O223      2.33897  1_565   S
    C221   O224      1.11206      .   S
    N23    O224      2.18534      .   S
    C225   O226      1.03790      .   S
    Zr1    O226      2.19044  1_545   S
    C225   O227      1.02384      .   S
    Zr11   O227      2.17188      .   S
    C225   O228      1.11064      .   S
    N30    O228      2.18578  1_554   S
    C229   O230      1.11678      .   S
    N29    O230      2.18732      .   S
    C229   O231      1.17943      .   S
    Zr11   O231      2.41136      .   S
    C229   O232      0.72216      .   S
    Zr1    O232      1.96283  1_545   S
    C229   O233      0.78830      .   S
    Zr1    O233      1.88367  1_545   S
    C234   O235      0.78826      .   S
    Zr5    O235      1.88333  1_545   S
    C234   O236      1.11681      .   S
    N18    O236      2.18740      .   S
    C234   O237      1.17943      .   S
    Zr15   O237      2.41134      .   S
    C234   O238      0.72202      .   S
    Zr5    O238      1.96261  1_545   S
    C239   O240      1.03796      .   S
    Zr15   O240      2.19046  1_565   S
    C239   O241      1.02375      .   S
    Zr5    O241      2.17163      .   S
    C239   O242      1.11064      .   S
    N31    O242      2.18582      .   S
    C243   O244      1.11681      .   S
    N27    O244      2.18746      .   S
    C243   O245      0.78827      .   S
    Zr15   O245      1.88345  1_565   S
    C243   O246      1.17935      .   S
    Zr5    O246      2.41147      .   S
    C243   O247      0.72194      .   S
    Zr15   O247      1.96275  1_565   S
