# CIF file generated by openbabel 2.4.90, see http://openbabel.sf.net
data_I
_chemical_name_common ''
_cell_length_a 18.394
_cell_length_b 18.394
_cell_length_c 18.394
_cell_angle_alpha 60.411
_cell_angle_beta 60.407
_cell_angle_gamma 60.411
_space_group_name_H-M_alt 'P 1'
_space_group_name_Hall 'P 1'
loop_
    _symmetry_equiv_pos_as_xyz
    x,y,z
loop_
    _atom_site_label
    _atom_site_type_symbol
    _atom_site_fract_x
    _atom_site_fract_y
    _atom_site_fract_z
    _atom_site_occupancy
    H0      H    0.04839   0.33589   0.56793   1.000
    H1      H    0.56792   0.04839   0.33587   1.000
    H2      H    0.33586   0.56793   0.04839   1.000
    H3      H    0.66412   0.95164   0.43206   1.000
    H4      H    0.95159   0.43210   0.66413   1.000
    H5      H    0.43207   0.66413   0.95162   1.000
    H6      H    0.95161   0.66413   0.43207   1.000
    H7      H    0.43207   0.95163   0.66413   1.000
    H8      H    0.66413   0.43209   0.95161   1.000
    H9      H    0.33586   0.04838   0.56794   1.000
    H10     H    0.04840   0.56792   0.33587   1.000
    H11     H    0.56792   0.33589   0.04838   1.000
    H12     H    0.04909   0.56742   0.04908   1.000
    H13     H    0.04708   0.33593   0.04707   1.000
    H14     H    0.04909   0.04908   0.56742   1.000
    H15     H    0.04709   0.04709   0.33591   1.000
    H16     H    0.56741   0.04908   0.04908   1.000
    H17     H    0.33591   0.04709   0.04709   1.000
    H18     H    0.43258   0.95093   0.95093   1.000
    H19     H    0.66408   0.95293   0.95292   1.000
    H20     H    0.95090   0.95094   0.43258   1.000
    H21     H    0.95290   0.95293   0.66409   1.000
    H22     H    0.95090   0.43260   0.95092   1.000
    H23     H    0.95291   0.66409   0.95293   1.000
    C24     C    0.02680   0.40778   0.53896   1.000
    C25     C    0.53895   0.02681   0.40777   1.000
    C26     C    0.40776   0.53896   0.02680   1.000
    C27     C    0.59222   0.97321   0.46104   1.000
    C28     C    0.97317   0.46106   0.59223   1.000
    C29     C    0.46104   0.59224   0.97320   1.000
    C30     C    0.97318   0.59224   0.46100   1.000
    C31     C    0.46104   0.97320   0.59223   1.000
    C32     C    0.59223   0.46106   0.97319   1.000
    C33     C    0.40776   0.02680   0.53896   1.000
    C34     C    0.02681   0.53896   0.40777   1.000
    C35     C    0.53895   0.40778   0.02680   1.000
    C36     C    0.05364   0.44609   0.05364   1.000
    C37     C    0.02720   0.53865   0.02720   1.000
    C38     C    0.02608   0.40781   0.02608   1.000
    C39     C    0.05365   0.05364   0.44608   1.000
    C40     C    0.02720   0.02721   0.53864   1.000
    C41     C    0.02608   0.02609   0.40700   1.000
    C42     C    0.44607   0.05366   0.05364   1.000
    C43     C    0.53863   0.02720   0.02720   1.000
    C44     C    0.40779   0.02608   0.02608   1.000
    C45     C    0.55392   0.94637   0.94630   1.000
    C46     C    0.46136   0.97281   0.97281   1.000
    C47     C    0.59220   0.97393   0.97392   1.000
    C48     C    0.94635   0.94637   0.55392   1.000
    C49     C    0.97279   0.97282   0.46136   1.000
    C50     C    0.97391   0.97393   0.59221   1.000
    C51     C    0.94635   0.55393   0.94637   1.000
    C52     C    0.97279   0.46137   0.97280   1.000
    C53     C    0.97392   0.59221   0.97392   1.000
    C54     C    0.05396   0.44640   0.44640   1.000
    C55     C    0.44639   0.05396   0.44640   1.000
    C56     C    0.44639   0.44641   0.05395   1.000
    C57     C    0.55360   0.94609   0.55360   1.000
    C58     C    0.94605   0.55361   0.55360   1.000
    C59     C    0.55359   0.55361   0.94608   1.000
loop_
    _geom_bond_atom_site_label_1
    _geom_bond_atom_site_label_2
    _geom_bond_distance
    _geom_bond_site_symmetry_2
    _ccdc_geom_bond_type
    C38    H13       1.08863      .   S
    C38    C36       1.40317      .   S
    C38    C52       1.39047  1_454   S
    C44    H17       1.08862      .   S
    C44    C42       1.40329      .   S
    C44    C46       1.39007  1_544   S
    C35    H11       1.08857      .   S
    C35    C56       1.40313      .   S
    C35    C32       1.39019  1_554   S
    C26    H2        1.08858      .   S
    C26    C56       1.40313      .   S
    C26    C29       1.39019  1_554   S
    C43    H16       1.08861      .   S
    C43    C42       1.40345      .   S
    C43    C47       1.39019  1_544   S
    C37    H12       1.08863      .   S
    C37    C36       1.40345      .   S
    C37    C53       1.39046  1_454   S
    H10    C34       1.08858      .   S
    H1     C25       1.08858      .   S
    H15    C41       1.07608      .   S
    C41    C39       1.41569      .   S
    C41    C49       1.39063  1_445   S
    C25    C55       1.40313      .   S
    C25    C27       1.39018  1_545   S
    C34    C54       1.40314      .   S
    C34    C30       1.38965  1_455   S
    H3     C27       1.08859      .   S
    H6     C30       1.08852      .   S
    H20    C49       1.08860      .   S
    C39    C40       1.40348      .   S
    C54    C24       1.40317      .   S
    C55    C33       1.40317      .   S
    C30    C58       1.40375      .   S
    C27    C57       1.40317      .   S
    C49    C48       1.40349      .   S
    C40    H14       1.08863      .   S
    C40    C50       1.39036  1_445   S
    C33    H9        1.08859      .   S
    C33    C31       1.39018  1_545   S
    C24    H0        1.08856      .   S
    C24    C28       1.39018  1_455   S
    C57    C31       1.40314      .   S
    C58    C28       1.40312      .   S
    C48    C50       1.40320      .   S
    C50    H21       1.08861      .   S
    C31    H7        1.08858      .   S
    C28    H4        1.08858      .   S
    C59    C32       1.40314      .   S
    C59    C29       1.40313      .   S
    C45    C46       1.40336      .   S
    C45    C47       1.40391      .   S
    C51    C52       1.40345      .   S
    C51    C53       1.40311      .   S
    H22    C52       1.08866      .   S
    H18    C46       1.08857      .   S
    H8     C32       1.08858      .   S
    H5     C29       1.08857      .   S
    H19    C47       1.08863      .   S
    H23    C53       1.08863      .   S
