# CIF file generated by openbabel 2.4.90, see http://openbabel.sf.net
data_I
_chemical_name_common ''
_cell_length_a 18.394
_cell_length_b 18.394
_cell_length_c 18.394
_cell_angle_alpha 60.411
_cell_angle_beta 60.407
_cell_angle_gamma 60.411
_space_group_name_H-M_alt 'P 1'
_space_group_name_Hall 'P 1'
loop_
    _symmetry_equiv_pos_as_xyz
    x,y,z
loop_
    _atom_site_label
    _atom_site_type_symbol
    _atom_site_fract_x
    _atom_site_fract_y
    _atom_site_fract_z
    _atom_site_occupancy
    C0      C    0.11098   0.38859   0.11096   1.000
    C1      C    0.11098   0.11098   0.38858   1.000
    C2      C    0.38856   0.11099   0.11099   1.000
    C3      C    0.61143   0.88902   0.88902   1.000
    C4      C    0.88900   0.88905   0.61142   1.000
    C5      C    0.88901   0.61143   0.88904   1.000
    C6      C    0.11159   0.38910   0.38910   1.000
    C7      C    0.38910   0.11158   0.38911   1.000
    C8      C    0.38910   0.38912   0.11157   1.000
    C9      C    0.61089   0.88842   0.61089   1.000
    C10     C    0.88837   0.61092   0.61090   1.000
    C11     C    0.61089   0.61090   0.88841   1.000
