# CIF file generated by openbabel 2.4.90, see http://openbabel.sf.net
data_I
_chemical_name_common ''
_cell_length_a 13.315
_cell_length_b 14.537
_cell_length_c 14.537
_cell_angle_alpha 89.98
_cell_angle_beta 90.001
_cell_angle_gamma 90.016
_space_group_name_H-M_alt 'P 1'
_space_group_name_Hall 'P 1'
loop_
    _symmetry_equiv_pos_as_xyz
    x,y,z
loop_
    _atom_site_label
    _atom_site_type_symbol
    _atom_site_fract_x
    _atom_site_fract_y
    _atom_site_fract_z
    _atom_site_occupancy
    Zn0     Zn   0.49964   0.00000   0.50004   1.000
    Zn1     Zn   0.99976   0.00000   0.50004   1.000
    Zn2     Zn   0.49975   0.50001   0.99997   1.000
    Zn3     Zn   0.99986   0.50000   0.99997   1.000
