# CIF file generated by openbabel 2.4.90, see http://openbabel.sf.net
data_I
_chemical_name_common ''
_cell_length_a 13.315
_cell_length_b 14.537
_cell_length_c 14.537
_cell_angle_alpha 89.98
_cell_angle_beta 90.001
_cell_angle_gamma 90.016
_space_group_name_H-M_alt 'P 1'
_space_group_name_Hall 'P 1'
loop_
    _symmetry_equiv_pos_as_xyz
    x,y,z
loop_
    _atom_site_label
    _atom_site_type_symbol
    _atom_site_fract_x
    _atom_site_fract_y
    _atom_site_fract_z
    _atom_site_occupancy
    N0      N    0.75530   0.18661   0.24672   1.000
    N1      N    0.75529   0.81338   0.75330   1.000
    N2      N    0.25547   0.68644   0.25331   1.000
    N3      N    0.25547   0.31356   0.74638   1.000
    N4      N    0.75532   0.75329   0.18664   1.000
    N5      N    0.75528   0.24677   0.81326   1.000
    N6      N    0.25550   0.25337   0.31364   1.000
    N7      N    0.25547   0.74639   0.68643   1.000
    Zr8     Zr   0.99986   0.50000   0.99997   1.000
    O9      O    0.07282   0.55215   0.07749   1.000
    O10     O    0.92657   0.59037   0.93352   1.000
    O11     O    0.92659   0.40961   0.06644   1.000
    O12     O    0.07283   0.44785   0.92240   1.000
    Zr13    Zr   0.49975   0.50001   0.99997   1.000
    O14     O    0.57268   0.42253   0.94771   1.000
    O15     O    0.42655   0.43354   0.09041   1.000
    O16     O    0.42653   0.56641   0.90958   1.000
    O17     O    0.57269   0.57750   0.05222   1.000
    Zr18    Zr   0.49964   0.00000   0.50004   1.000
    O19     O    0.57260   0.94777   0.57753   1.000
    O20     O    0.42645   0.90959   0.43355   1.000
    O21     O    0.57259   0.05224   0.42253   1.000
    O22     O    0.42643   0.09039   0.56643   1.000
    Zr23    Zr   0.99976   0.00000   0.50004   1.000
    O24     O    0.92649   0.06648   0.59035   1.000
    O25     O    0.07276   0.07753   0.44790   1.000
    O26     O    0.07275   0.92242   0.55218   1.000
    O27     O    0.92651   0.93354   0.40966   1.000
loop_
    _geom_bond_atom_site_label_1
    _geom_bond_atom_site_label_2
    _geom_bond_distance
    _geom_bond_site_symmetry_2
    _ccdc_geom_bond_type
    Zr8    O9        1.66991  1_656   S
    N2     O9        4.03224      .   S
    Zr8    O10       1.90022      .   S
    N1     O10       4.75109      .   S
    Zr8    O11       1.90008  1_556   S
    N0     O11       4.75072      .   S
    Zr8    O12       1.67078  1_655   S
    N3     O12       4.03466      .   S
    Zr13   O14       1.67028      .   S
    N5     O14       4.03318      .   S
    Zr13   O15       1.90016  1_556   S
    N6     O15       4.75068      .   S
    Zr13   O16       1.89965      .   S
    N7     O16       4.74906      .   S
    Zr13   O17       1.67007  1_556   S
    N4     O17       4.03264      .   S
    Zr18   O19       1.67004  1_545   S
    N1     O19       4.03257      .   S
    Zr18   O20       1.90031  1_545   S
    N2     O20       4.75110      .   S
    Zr18   O21       1.66995      .   S
    N0     O21       4.03243      .   S
    Zr18   O22       1.89998      .   S
    N3     O22       4.74971      .   S
    Zr23   O24       1.90026      .   S
    N5     O24       4.75138      .   S
    Zr23   O25       1.66980  1_655   S
    N6     O25       4.03202      .   S
    Zr23   O26       1.67059  1_645   S
    N7     O26       4.03426      .   S
    Zr23   O27       1.90029  1_545   S
    N4     O27       4.75130      .   S
