# CIF file generated by openbabel 2.4.90, see http://openbabel.sf.net
data_I
_chemical_name_common ''
_cell_length_a 13.315
_cell_length_b 14.537
_cell_length_c 14.537
_cell_angle_alpha 89.98
_cell_angle_beta 90.001
_cell_angle_gamma 90.016
_space_group_name_H-M_alt 'P 1'
_space_group_name_Hall 'P 1'
loop_
    _symmetry_equiv_pos_as_xyz
    x,y,z
loop_
    _atom_site_label
    _atom_site_type_symbol
    _atom_site_fract_x
    _atom_site_fract_y
    _atom_site_fract_z
    _atom_site_occupancy
    Zr0     Zr   0.99986   0.50000   0.99997   1.000
    Zr1     Zr   0.49964   0.00000   0.50004   1.000
    Zr2     Zr   0.99976   0.00000   0.50004   1.000
    Zr3     Zr   0.49975   0.50001   0.99997   1.000
    N4      N    0.75530   0.18661   0.24672   1.000
    O5      O    0.64554   0.10447   0.34502   1.000
    O6      O    0.85332   0.31923   0.13290   1.000
    N7      N    0.75529   0.81338   0.75330   1.000
    O8      O    0.64555   0.89553   0.65502   1.000
    O9      O    0.85328   0.68073   0.86707   1.000
    N10     N    0.25547   0.68644   0.25331   1.000
    O11     O    0.14578   0.60431   0.15501   1.000
    O12     O    0.35326   0.81919   0.36707   1.000
    N13     N    0.25547   0.31356   0.74638   1.000
    O14     O    0.14580   0.39570   0.84482   1.000
    O15     O    0.35323   0.18078   0.63283   1.000
    N16     N    0.75532   0.75329   0.18664   1.000
    O17     O    0.64562   0.65500   0.10446   1.000
    O18     O    0.85326   0.86708   0.31928   1.000
    N19     N    0.75528   0.24677   0.81326   1.000
    O20     O    0.64560   0.34505   0.89545   1.000
    O21     O    0.85321   0.13296   0.68067   1.000
    N22     N    0.25550   0.25337   0.31364   1.000
    O23     O    0.14575   0.15506   0.39576   1.000
    O24     O    0.35335   0.36708   0.18085   1.000
    N25     N    0.25547   0.74639   0.68643   1.000
    O26     O    0.14573   0.84484   0.60432   1.000
    O27     O    0.35330   0.63281   0.81918   1.000
loop_
    _geom_bond_atom_site_label_1
    _geom_bond_atom_site_label_2
    _geom_bond_distance
    _geom_bond_site_symmetry_2
    _ccdc_geom_bond_type
    N4     O5        2.36679      .   S
    Zr1    O5        3.33991      .   S
    N4     O6        2.85548      .   S
    Zr0    O6        3.80016  1_556   S
    N7     O8        2.36684      .   S
    Zr1    O8        3.34008  1_545   S
    N7     O9        2.85571      .   S
    Zr0    O9        3.80043      .   S
    N10    O11       2.36665      .   S
    Zr0    O11       3.33983  1_656   S
    N10    O12       2.85561      .   S
    Zr1    O12       3.80063  1_545   S
    N13    O14       2.36818      .   S
    Zr0    O14       3.34156  1_655   S
    N13    O15       2.85454      .   S
    Zr1    O15       3.79997      .   S
    N16    O17       2.36687      .   S
    Zr3    O17       3.34015  1_556   S
    N16    O18       2.85585      .   S
    Zr2    O18       3.80059  1_545   S
    N19    O20       2.36720      .   S
    Zr3    O20       3.34056      .   S
    N19    O21       2.85597      .   S
    Zr2    O21       3.80051      .   S
    N22    O23       2.36656      .   S
    Zr2    O23       3.33958  1_655   S
    N22    O24       2.85533      .   S
    Zr3    O24       3.80031  1_556   S
    N25    O26       2.36797      .   S
    Zr2    O26       3.34118  1_645   S
    N25    O27       2.85422      .   S
    Zr3    O27       3.79931      .   S
