# CIF file generated by openbabel 2.4.90, see http://openbabel.sf.net
data_I
_chemical_name_common ''
_cell_length_a 15.74
_cell_length_b 23.167
_cell_length_c 13.534
_cell_angle_alpha 90.001
_cell_angle_beta 90
_cell_angle_gamma 109.791
_space_group_name_H-M_alt 'P 1'
_space_group_name_Hall 'P 1'
loop_
    _symmetry_equiv_pos_as_xyz
    x,y,z
loop_
    _atom_site_label
    _atom_site_type_symbol
    _atom_site_fract_x
    _atom_site_fract_y
    _atom_site_fract_z
    _atom_site_occupancy
    H0      H    0.09597   0.05532   0.90478   1.000
    H1      H    0.09597   0.55533   0.90470   1.000
    H2      H    0.59597   0.05532   0.90470   1.000
    H3      H    0.59597   0.55533   0.90478   1.000
    H4      H    0.19658   0.09637   0.83921   1.000
    H5      H    0.19658   0.59638   0.83921   1.000
    H6      H    0.69658   0.09638   0.83921   1.000
    H7      H    0.69658   0.59638   0.83921   1.000
    H8      H    0.04077   0.44383   0.59523   1.000
    H9      H    0.04077   0.94384   0.59523   1.000
    H10     H    0.54077   0.44383   0.59523   1.000
    H11     H    0.54077   0.94384   0.59523   1.000
    H12     H    0.10083   0.40305   0.66085   1.000
    H13     H    0.10083   0.90306   0.66085   1.000
    H14     H    0.60083   0.40305   0.66085   1.000
    H15     H    0.60083   0.90306   0.66085   1.000
    H16     H    0.09597   0.05532   0.59523   1.000
    H17     H    0.09597   0.55532   0.59523   1.000
    H18     H    0.59597   0.05532   0.59523   1.000
    H19     H    0.59597   0.55533   0.59523   1.000
    H20     H    0.19658   0.09638   0.66080   1.000
    H21     H    0.19658   0.59638   0.66080   1.000
    H22     H    0.69658   0.09638   0.66080   1.000
    H23     H    0.69658   0.59638   0.66080   1.000
    H24     H    0.04077   0.44383   0.90477   1.000
    H25     H    0.04077   0.94384   0.90477   1.000
    H26     H    0.54077   0.44383   0.90477   1.000
    H27     H    0.54077   0.94384   0.90477   1.000
    H28     H    0.10083   0.40305   0.83915   1.000
    H29     H    0.10083   0.90306   0.83910   1.000
    H30     H    0.60083   0.40305   0.83910   1.000
    H31     H    0.60083   0.90306   0.83915   1.000
    H32     H    0.46075   0.99943   0.81593   1.000
    H33     H    0.46074   0.49944   0.81593   1.000
    H34     H    0.96074   0.99943   0.81593   1.000
    H35     H    0.96074   0.49944   0.81593   1.000
    H36     H    0.46075   0.99943   0.68407   1.000
    H37     H    0.46074   0.49944   0.68408   1.000
    H38     H    0.96074   0.99943   0.68408   1.000
    H39     H    0.96074   0.49944   0.68407   1.000
    H40     H    0.23737   0.45896   0.75000   1.000
    H41     H    0.23737   0.95896   0.75000   1.000
    H42     H    0.73737   0.45896   0.75000   1.000
    H43     H    0.73737   0.95896   0.75000   1.000
    H44     H    0.27790   0.04085   0.75000   1.000
    H45     H    0.27790   0.54086   0.75000   1.000
    H46     H    0.77790   0.04085   0.75000   1.000
    H47     H    0.77791   0.54086   0.75000   1.000
    H48     H    0.40405   0.44470   0.40477   1.000
    H49     H    0.40405   0.94470   0.40477   1.000
    H50     H    0.90406   0.44469   0.40477   1.000
    H51     H    0.90406   0.94470   0.40477   1.000
    H52     H    0.30344   0.40364   0.33920   1.000
    H53     H    0.30344   0.90365   0.33920   1.000
    H54     H    0.80345   0.40364   0.33920   1.000
    H55     H    0.80344   0.90365   0.33920   1.000
    H56     H    0.45925   0.05618   0.09523   1.000
    H57     H    0.45925   0.55619   0.09523   1.000
    H58     H    0.95926   0.05618   0.09523   1.000
    H59     H    0.95926   0.55619   0.09523   1.000
    H60     H    0.39919   0.09696   0.16080   1.000
    H61     H    0.39919   0.59697   0.16085   1.000
    H62     H    0.89919   0.09696   0.16085   1.000
    H63     H    0.89919   0.59697   0.16080   1.000
    H64     H    0.40405   0.44469   0.09520   1.000
    H65     H    0.40405   0.94470   0.09522   1.000
    H66     H    0.90406   0.44469   0.09522   1.000
    H67     H    0.90406   0.94470   0.09522   1.000
    H68     H    0.30344   0.40364   0.16079   1.000
    H69     H    0.30344   0.90364   0.16079   1.000
    H70     H    0.80345   0.40364   0.16079   1.000
    H71     H    0.80344   0.90364   0.16079   1.000
    H72     H    0.45925   0.05618   0.40477   1.000
    H73     H    0.45925   0.55619   0.40477   1.000
    H74     H    0.95926   0.05618   0.40477   1.000
    H75     H    0.95926   0.55619   0.40477   1.000
    C76     C    0.91915   0.55589   0.16162   1.000
    C77     C    0.36413   0.44484   0.16160   1.000
    C78     C    0.36414   0.94485   0.16160   1.000
    C79     C    0.86414   0.44484   0.16160   1.000
    H80     H    0.39919   0.09696   0.33915   1.000
    H81     H    0.39919   0.59697   0.33915   1.000
    H82     H    0.89919   0.09696   0.33915   1.000
    H83     H    0.89920   0.59697   0.33915   1.000
    H84     H    0.03928   0.00058   0.31590   1.000
    H85     H    0.03929   0.50058   0.31592   1.000
    H86     H    0.53928   0.00058   0.31592   1.000
    H87     H    0.53928   0.50058   0.31593   1.000
    H88     H    0.03928   0.00058   0.18407   1.000
    H89     H    0.03929   0.50058   0.18407   1.000
    H90     H    0.53928   0.00058   0.18407   1.000
    H91     H    0.53928   0.50058   0.18407   1.000
    H92     H    0.26265   0.04106   0.25000   1.000
    H93     H    0.26265   0.54106   0.25000   1.000
    H94     H    0.76265   0.04106   0.25000   1.000
    H95     H    0.76265   0.54106   0.25000   1.000
    H96     H    0.22212   0.45916   0.25000   1.000
    H97     H    0.22212   0.95917   0.25000   1.000
    H98     H    0.72212   0.45916   0.25000   1.000
    H99     H    0.72212   0.95916   0.25000   1.000
    N100    N    0.27667   0.24252   0.25000   1.000
    N101    N    0.27666   0.74253   0.25000   1.000
    N102    N    0.77666   0.24252   0.25000   1.000
    N103    N    0.77666   0.74253   0.25000   1.000
    N104    N    0.22336   0.25749   0.75000   1.000
    C105    C    0.06915   0.39451   0.37751   1.000
    C106    C    0.13589   0.05517   0.83840   1.000
    C107    C    0.13589   0.55518   0.83840   1.000
    C108    C    0.63589   0.05517   0.83840   1.000
    C109    C    0.63589   0.55518   0.83840   1.000
    C110    C    0.08087   0.44412   0.66162   1.000
    C111    C    0.08087   0.94413   0.66162   1.000
    C112    C    0.58088   0.44412   0.66162   1.000
    C113    C    0.58088   0.94413   0.66162   1.000
    C114    C    0.13588   0.05517   0.66160   1.000
    C115    C    0.13589   0.55518   0.66160   1.000
    C116    C    0.63589   0.05517   0.66160   1.000
    C117    C    0.63589   0.55518   0.66160   1.000
    C118    C    0.08087   0.44412   0.83838   1.000
    C119    C    0.08087   0.94414   0.83838   1.000
    C120    C    0.58088   0.44413   0.83838   1.000
    C121    C    0.58088   0.94413   0.83838   1.000
    C122    C    0.50135   0.99949   0.75000   1.000
    C123    C    0.50136   0.49950   0.75000   1.000
    C124    C    0.00000   0.99949   0.75000   1.000
    C125    C    0.00000   0.49950   0.75000   1.000
    C126    C    0.21717   0.99983   0.75000   1.000
    C127    C    0.21717   0.49983   0.75000   1.000
    C128    C    0.71717   0.99983   0.75000   1.000
    C129    C    0.71717   0.49983   0.75000   1.000
    C130    C    0.36414   0.44484   0.33840   1.000
    C131    C    0.36414   0.94485   0.33840   1.000
    C132    C    0.86414   0.44484   0.33840   1.000
    C133    C    0.86414   0.94485   0.33840   1.000
    C134    C    0.41915   0.05589   0.16162   1.000
    C135    C    0.41915   0.55590   0.16162   1.000
    C136    C    0.91915   0.05589   0.16162   1.000
    C137    C    0.86414   0.94485   0.16160   1.000
    C138    C    0.41915   0.05589   0.33838   1.000
    C139    C    0.41915   0.55590   0.33838   1.000
    C140    C    0.91915   0.05589   0.33838   1.000
    C141    C    0.91915   0.55589   0.33838   1.000
    C142    C    0.99867   0.00052   0.25000   1.000
    C143    C    0.99867   0.50052   0.25000   1.000
    C144    C    0.49867   0.00051   0.25000   1.000
    C145    C    0.49867   0.50052   0.25000   1.000
    C146    C    0.28285   0.00018   0.25000   1.000
    C147    C    0.28285   0.50018   0.25000   1.000
    C148    C    0.78285   0.00018   0.25000   1.000
    C149    C    0.78285   0.50018   0.25000   1.000
    N150    N    0.19714   0.07424   0.06820   1.000
    N151    N    0.19714   0.57425   0.06820   1.000
    N152    N    0.69714   0.07424   0.06822   1.000
    N153    N    0.69714   0.57425   0.06822   1.000
    N154    N    0.30288   0.42577   0.56822   1.000
    N155    N    0.30288   0.92578   0.56822   1.000
    N156    N    0.80288   0.42577   0.56822   1.000
    N157    N    0.80288   0.92578   0.56822   1.000
    N158    N    0.12317   0.42618   0.43156   1.000
    N159    N    0.12317   0.92619   0.43156   1.000
    N160    N    0.62317   0.42618   0.43156   1.000
    N161    N    0.62317   0.92619   0.43156   1.000
    N162    N    0.37685   0.07383   0.93157   1.000
    N163    N    0.37685   0.57384   0.93157   1.000
    N164    N    0.87685   0.07383   0.93157   1.000
    N165    N    0.87685   0.57384   0.93157   1.000
    N166    N    0.30288   0.42578   0.93170   1.000
    N167    N    0.30288   0.92578   0.93170   1.000
    N168    N    0.80288   0.42578   0.93179   1.000
    N169    N    0.80288   0.92578   0.93179   1.000
    N170    N    0.19714   0.07424   0.43178   1.000
    N171    N    0.19714   0.57425   0.43178   1.000
    N172    N    0.69714   0.07424   0.43178   1.000
    N173    N    0.69714   0.57425   0.43178   1.000
    N174    N    0.37685   0.07383   0.56844   1.000
    N175    N    0.37685   0.57384   0.56844   1.000
    N176    N    0.87685   0.07383   0.56844   1.000
    N177    N    0.87685   0.57384   0.56844   1.000
    N178    N    0.12317   0.42618   0.06843   1.000
    N179    N    0.12317   0.92618   0.06843   1.000
    N180    N    0.62317   0.42618   0.06843   1.000
    N181    N    0.62317   0.92618   0.06843   1.000
    N182    N    0.03421   0.25805   0.20000   1.000
    N183    N    0.03421   0.75806   0.20000   1.000
    N184    N    0.53421   0.25805   0.20000   1.000
    N185    N    0.53421   0.75806   0.20000   1.000
    N186    N    0.46581   0.24196   0.75000   1.000
    N187    N    0.46581   0.74197   0.75000   1.000
    N188    N    0.96581   0.24196   0.75000   1.000
    N189    N    0.96581   0.74197   0.75000   1.000
    N190    N    0.22336   0.75750   0.75000   1.000
    N191    N    0.72336   0.25749   0.75000   1.000
    N192    N    0.72336   0.75750   0.75000   1.000
    N193    N    0.16411   0.99974   0.84105   1.000
    N194    N    0.16411   0.49975   0.84105   1.000
    N195    N    0.66411   0.99974   0.84105   1.000
    N196    N    0.66411   0.49975   0.84105   1.000
    N197    N    0.16411   0.99974   0.65895   1.000
    N198    N    0.16410   0.49975   0.65895   1.000
    N199    N    0.66411   0.99974   0.65895   1.000
    N200    N    0.66411   0.49975   0.65895   1.000
    N201    N    0.08183   0.05564   0.75000   1.000
    N202    N    0.08183   0.55565   0.75000   1.000
    N203    N    0.58183   0.05564   0.75000   1.000
    N204    N    0.58183   0.55565   0.75000   1.000
    N205    N    0.02626   0.44351   0.75000   1.000
    N206    N    0.02626   0.94351   0.75000   1.000
    N207    N    0.52626   0.44351   0.75000   1.000
    N208    N    0.52626   0.94351   0.75000   1.000
    N209    N    0.33592   0.00026   0.34105   1.000
    N210    N    0.33592   0.50027   0.34105   1.000
    N211    N    0.83592   0.00026   0.34100   1.000
    N212    N    0.83592   0.50027   0.34100   1.000
    N213    N    0.33592   0.00026   0.15895   1.000
    N214    N    0.33592   0.50027   0.15895   1.000
    N215    N    0.83592   0.00026   0.15895   1.000
    N216    N    0.83592   0.50027   0.15895   1.000
    N217    N    0.41819   0.44437   0.25000   1.000
    N218    N    0.41819   0.94438   0.25000   1.000
    N219    N    0.91819   0.44437   0.25000   1.000
    N220    N    0.91819   0.94438   0.25000   1.000
    N221    N    0.47376   0.05651   0.25000   1.000
    N222    N    0.47376   0.55651   0.25000   1.000
    N223    N    0.97376   0.05651   0.25000   1.000
    N224    N    0.97376   0.55652   0.25000   1.000
loop_
    _geom_bond_atom_site_label_1
    _geom_bond_atom_site_label_2
    _geom_bond_distance
    _geom_bond_site_symmetry_2
    _ccdc_geom_bond_type
    H64    C77       1.09719      .   S
    H67    C137      1.09696      .   S
    H66    C79       1.09695      .   S
    H65    C78       1.09695      .   S
    H59    C76       1.09681      .   S
    H58    C136      1.09682      .   S
    H57    C135      1.09683      .   S
    H56    C134      1.09681      .   S
    N213   C78       1.49426  1_545   S
    N213   C134      1.49498      .   S
    N213   C146      1.48828      .   S
    N214   C77       1.49464      .   S
    N214   C135      1.49497      .   S
    N214   C147      1.48830      .   S
    N215   C137      1.49427  1_545   S
    N215   C136      1.49497      .   S
    N215   C148      1.48830      .   S
    N216   C79       1.49464      .   S
    N216   C76       1.49497      .   S
    N216   C149      1.48829      .   S
    H70    C79       1.09838      .   S
    H71    C137      1.09836      .   S
    H68    C77       1.09837      .   S
    H69    C78       1.09838      .   S
    H60    C134      1.09842      .   S
    H63    C76       1.09843      .   S
    H61    C135      1.09841      .   S
    H62    C136      1.09842      .   S
    C77    N217      1.47029      .   S
    C137   N220      1.47028      .   S
    C79    N219      1.47027      .   S
    C78    N218      1.47028      .   S
    C76    N224      1.47022      .   S
    C134   N221      1.47022      .   S
    C135   N222      1.47023      .   S
    C136   N223      1.47023      .   S
    H91    C145      1.09732      .   S
    H90    C144      1.09736      .   S
    H89    C143      1.09738  1_455   S
    H88    C142      1.09735  1_455   S
    H93    C147      1.09632      .   S
    H92    C146      1.09632      .   S
    H96    C147      1.09633      .   S
    N217   C145      1.47682      .   S
    N217   C130      1.47029      .   S
    N218   C144      1.47658  1_565   S
    N218   C131      1.47028      .   S
    N219   C143      1.47683      .   S
    N219   C132      1.47027      .   S
    N220   C142      1.47661  1_565   S
    N220   C133      1.47028      .   S
    N221   C144      1.47673      .   S
    N221   C138      1.47022      .   S
    N222   C145      1.47672      .   S
    N222   C139      1.47023      .   S
    N223   C142      1.47672      .   S
    N223   C140      1.47022      .   S
    N224   C143      1.47673      .   S
    N224   C141      1.47022      .   S
    C143   H85       1.09727  1_655   S
    C144   H86       1.09726      .   S
    C145   H87       1.09732      .   S
    H94    C148      1.09633      .   S
    C146   H97       1.09611  1_545   S
    C146   N209      1.48829      .   S
    C147   N210      1.48830      .   S
    C148   H99       1.09610  1_545   S
    C148   N211      1.48774      .   S
    C149   H98       1.09633      .   S
    C149   H95       1.09634      .   S
    C149   N212      1.48773      .   S
    C142   H84       1.09702  1_655   S
    C141   H83       1.09841      .   S
    C141   N212      1.49496      .   S
    C141   H75       1.09681      .   S
    C140   H82       1.09841      .   S
    C140   N211      1.49497      .   S
    C140   H74       1.09682      .   S
    C139   H81       1.09841      .   S
    C139   N210      1.49498      .   S
    C139   H73       1.09683      .   S
    C138   H80       1.09840      .   S
    C138   N209      1.49498      .   S
    C138   H72       1.09681      .   S
    C133   H55       1.09838      .   S
    C133   N211      1.49422  1_565   S
    C133   H51       1.09685      .   S
    C132   H54       1.09839      .   S
    C132   N212      1.49460      .   S
    C132   H50       1.09685      .   S
    C131   H53       1.09838      .   S
    C131   N209      1.49425  1_565   S
    C131   H49       1.09685      .   S
    C130   H52       1.09838      .   S
    C130   N210      1.49463      .   S
    C130   H48       1.09686      .   S
    C105   N158      1.17222      .   S
    H11    C113      1.09682      .   S
    H8     C110      1.09682      .   S
    H9     C111      1.09681      .   S
    H10    C112      1.09681      .   S
    H16    C114      1.09685      .   S
    H17    C115      1.09685      .   S
    H18    C116      1.09686      .   S
    H19    C117      1.09685      .   S
    N200   C117      1.49462      .   S
    N200   C112      1.49498      .   S
    N200   C129      1.48828      .   S
    N199   C116      1.49461  1_565   S
    N199   C113      1.49474      .   S
    N199   C128      1.48830      .   S
    N198   C115      1.49464      .   S
    N198   C110      1.49498      .   S
    N198   C127      1.48830      .   S
    N197   C114      1.49464  1_565   S
    N197   C111      1.49474      .   S
    N197   C126      1.48829      .   S
    H20    C114      1.09838      .   S
    H23    C117      1.09838      .   S
    H22    C116      1.09838      .   S
    H21    C115      1.09837      .   S
    H12    C110      1.09840      .   S
    H13    C111      1.09841      .   S
    H14    C112      1.09841      .   S
    H15    C113      1.09841      .   S
    C117   N204      1.47029      .   S
    C116   N203      1.47029      .   S
    C115   N202      1.47028      .   S
    C114   N201      1.47028      .   S
    C111   N206      1.47022      .   S
    C113   N208      1.47023      .   S
    C112   N207      1.47022      .   S
    C110   N205      1.47023      .   S
    H36    C122      1.09733      .   S
    H39    C125      1.08510  1_655   S
    H38    C124      1.08501  1_655   S
    H37    C123      1.09725      .   S
    H47    C129      1.09634      .   S
    N206   C124      1.48843      .   S
    N206   C119      1.47021      .   S
    N205   C125      1.48880      .   S
    N205   C118      1.47023      .   S
    N204   C123      1.47682      .   S
    N204   C109      1.47028      .   S
    N203   C122      1.47682  1_545   S
    N203   C108      1.47028      .   S
    N202   C125      1.48884      .   S
    N202   C107      1.47028      .   S
    N201   C124      1.48885  1_545   S
    N201   C106      1.47028      .   S
    H46    C128      1.09633  1_545   S
    N207   C123      1.47671      .   S
    N207   C120      1.47022      .   S
    N208   C122      1.47633      .   S
    N208   C121      1.47022      .   S
    H44    C126      1.09634  1_545   S
    H45    C127      1.09633      .   S
    C127   H40       1.09632      .   S
    C127   N194      1.48830      .   S
    H41    C126      1.09595      .   S
    H42    C129      1.09635      .   S
    H43    C128      1.09596      .   S
    C129   N196      1.48828      .   S
    C128   N195      1.48829      .   S
    C126   N193      1.48828      .   S
    C125   H35       1.08510  1_455   S
    C124   H34       1.08512  1_455   S
    C123   H33       1.09736      .   S
    C122   H32       1.09733      .   S
    C118   H28       1.09843      .   S
    C118   N194      1.49498      .   S
    C118   H24       1.09683      .   S
    C119   H29       1.09841      .   S
    C119   N193      1.49474      .   S
    C119   H25       1.09680      .   S
    C120   H30       1.09841      .   S
    C120   N196      1.49498      .   S
    C120   H26       1.09680      .   S
    C121   H31       1.09842      .   S
    C121   N195      1.49475      .   S
    C121   H27       1.09681      .   S
    C106   H4        1.09839      .   S
    C106   N193      1.49463  1_545   S
    C106   H0        1.09695      .   S
    C107   H5        1.09839      .   S
    C107   N194      1.49462      .   S
    C107   H1        1.09608      .   S
    C108   H6        1.09839      .   S
    C108   N195      1.49462  1_545   S
    C108   H2        1.09607      .   S
    C109   H7        1.09838      .   S
    C109   N196      1.49462      .   S
    C109   H3        1.09695      .   S
