# CIF file generated by openbabel 2.4.90, see http://openbabel.sf.net
data_I
_chemical_name_common ''
_cell_length_a 15.74
_cell_length_b 23.167
_cell_length_c 13.534
_cell_angle_alpha 90.001
_cell_angle_beta 90
_cell_angle_gamma 109.791
_space_group_name_H-M_alt 'P 1'
_space_group_name_Hall 'P 1'
loop_
    _symmetry_equiv_pos_as_xyz
    x,y,z
loop_
    _atom_site_label
    _atom_site_type_symbol
    _atom_site_fract_x
    _atom_site_fract_y
    _atom_site_fract_z
    _atom_site_occupancy
    Cd0     Cd   0.14260   0.65669   0.25000   1.000
    Cd1     Cd   0.64260   0.15668   0.25000   1.000
    Cd2     Cd   0.64260   0.65669   0.25000   1.000
    Cd3     Cd   0.35742   0.34333   0.75000   1.000
    Cd4     Cd   0.35742   0.84334   0.75000   1.000
    Cd5     Cd   0.85742   0.34333   0.75000   1.000
    Cd6     Cd   0.85742   0.84334   0.75000   1.000
    Cd7     Cd   0.48594   0.34403   0.24999   1.000
    Cd8     Cd   0.48594   0.84404   0.24999   1.000
    Cd9     Cd   0.98594   0.34403   0.20000   1.000
    Cd10    Cd   0.98594   0.84404   0.24999   1.000
    Cd11    Cd   0.01409   0.15598   0.75000   1.000
    Cd12    Cd   0.01409   0.65599   0.75000   1.000
    Cd13    Cd   0.51408   0.15598   0.75000   1.000
    Cd14    Cd   0.51408   0.65599   0.75000   1.000
    Cd15    Cd   0.25001   1.00000   0.99999   1.000
    Cd16    Cd   0.25001   0.50001   0.99999   1.000
    Cd17    Cd   0.75001   1.00000   0.00000   1.000
    Cd18    Cd   0.75001   0.50001   0.00000   1.000
    Cd19    Cd   0.25001   0.00000   0.50000   1.000
    Cd20    Cd   0.25001   0.50001   0.50000   1.000
    Cd21    Cd   0.75001   0.00000   0.50000   1.000
    Cd22    Cd   0.75001   0.50001   0.50000   1.000
    Cd23    Cd   0.14260   0.15668   0.25000   1.000
    C24     C    0.17504   0.10601   0.12242   1.000
    C25     C    0.17504   0.60601   0.12242   1.000
    C26     C    0.67504   0.10600   0.12242   1.000
    C27     C    0.67504   0.60601   0.12242   1.000
    C28     C    0.32498   0.39401   0.62242   1.000
    C29     C    0.32498   0.89401   0.62242   1.000
    C30     C    0.82498   0.39400   0.62242   1.000
    C31     C    0.82498   0.89401   0.62242   1.000
    C32     C    0.06915   0.89451   0.37751   1.000
    C33     C    0.56915   0.39451   0.37751   1.000
    C34     C    0.56915   0.89451   0.37751   1.000
    C35     C    0.43088   0.10551   0.87752   1.000
    C36     C    0.43088   0.60552   0.87752   1.000
    C37     C    0.93088   0.10551   0.87752   1.000
    C38     C    0.93088   0.60552   0.87752   1.000
    C39     C    0.32499   0.39401   0.87758   1.000
    C40     C    0.32499   0.89402   0.87758   1.000
    C41     C    0.82498   0.39401   0.87758   1.000
    C42     C    0.82498   0.89401   0.87758   1.000
    C43     C    0.17504   0.10601   0.37758   1.000
    C44     C    0.17504   0.60601   0.37758   1.000
    C45     C    0.67504   0.10601   0.37758   1.000
    C46     C    0.67504   0.60601   0.37758   1.000
    C47     C    0.43088   0.10551   0.62249   1.000
    C48     C    0.43088   0.60551   0.62249   1.000
    C49     C    0.93088   0.10551   0.62240   1.000
    C50     C    0.93088   0.60552   0.62249   1.000
    C51     C    0.06914   0.39450   0.12248   1.000
    C52     C    0.06915   0.89451   0.12248   1.000
    C53     C    0.56914   0.39450   0.12248   1.000
    C54     C    0.56914   0.89451   0.12248   1.000
    C55     C    0.06248   0.21742   0.25000   1.000
    C56     C    0.06248   0.71742   0.25000   1.000
    C57     C    0.56248   0.21742   0.25000   1.000
    C58     C    0.56248   0.71742   0.25000   1.000
    C59     C    0.43755   0.28260   0.75000   1.000
    C60     C    0.43755   0.78260   0.75000   1.000
    C61     C    0.93755   0.28260   0.75000   1.000
    C62     C    0.93755   0.78260   0.75000   1.000
    C63     C    0.34525   0.28332   0.25000   1.000
    C64     C    0.34525   0.78333   0.25000   1.000
    C65     C    0.84525   0.28332   0.25000   1.000
    C66     C    0.84525   0.78333   0.25000   1.000
    C67     C    0.15477   0.21669   0.75000   1.000
    C68     C    0.15478   0.71670   0.75000   1.000
    C69     C    0.65477   0.21669   0.75000   1.000
    C70     C    0.65477   0.71670   0.75000   1.000
loop_
    _geom_bond_atom_site_label_1
    _geom_bond_atom_site_label_2
    _geom_bond_distance
    _geom_bond_site_symmetry_2
    _ccdc_geom_bond_type
    C27    Cd2       2.24190      .   S
    C26    Cd1       2.24190      .   S
    C25    Cd0       2.24190      .   S
    C24    Cd23      2.24190      .   S
    C54    Cd8       2.24134      .   S
    C51    Cd9       1.77375  1_455   S
    C52    Cd10      2.24136  1_455   S
    C53    Cd7       2.24134      .   S
    Cd9    C65       2.28710      .   S
    Cd7    C63       2.18467      .   S
    Cd7    C33       2.24143      .   S
    Cd8    C64       2.18469      .   S
    Cd8    C34       2.24142      .   S
    Cd10   C66       2.18467      .   S
    Cd10   C32       2.24144  1_655   S
    Cd23   C55       2.18453      .   S
    Cd23   C43       2.24191      .   S
    C56    Cd0       2.18451      .   S
    C58    Cd2       2.18453      .   S
    C57    Cd1       2.18454      .   S
    Cd0    C44       2.24193      .   S
    Cd1    C45       2.24192      .   S
    Cd2    C46       2.24191      .   S
    C49    Cd11      2.24228  1_655   S
    C31    Cd6       2.24190      .   S
    C28    Cd3       2.24191      .   S
    C29    Cd4       2.24191      .   S
    C30    Cd5       2.24190      .   S
    C50    Cd12      2.24134  1_655   S
    C47    Cd13      2.24133      .   S
    C48    Cd14      2.24133      .   S
    Cd14   C70       2.18467      .   S
    Cd14   C36       2.24145      .   S
    Cd13   C69       2.18466      .   S
    Cd13   C35       2.24145      .   S
    Cd12   C68       2.18467      .   S
    Cd12   C38       2.24145  1_455   S
    Cd11   C67       2.18468      .   S
    Cd11   C37       2.24146  1_455   S
    Cd6    C62       2.18451      .   S
    Cd6    C42       2.24189      .   S
    Cd5    C61       2.18453      .   S
    Cd5    C41       2.24189      .   S
    Cd4    C60       2.18451      .   S
    Cd4    C40       2.24190      .   S
    Cd3    C59       2.18452      .   S
    Cd3    C39       2.24190      .   S
