# CIF file generated by openbabel 2.4.90, see http://openbabel.sf.net
data_I
_chemical_name_common ''
_cell_length_a 15.74
_cell_length_b 23.167
_cell_length_c 13.534
_cell_angle_alpha 90.001
_cell_angle_beta 90
_cell_angle_gamma 109.791
_space_group_name_H-M_alt 'P 1'
_space_group_name_Hall 'P 1'
loop_
    _symmetry_equiv_pos_as_xyz
    x,y,z
loop_
    _atom_site_label
    _atom_site_type_symbol
    _atom_site_fract_x
    _atom_site_fract_y
    _atom_site_fract_z
    _atom_site_occupancy
    N0      N    0.69714   0.07424   0.43178   1.000
    N1      N    0.89123   0.00036   0.25000   1.000
    N2      N    0.60879   0.99966   0.75000   1.000
    N3      N    0.10873   0.49966   0.75000   1.000
    N4      N    0.39123   0.50036   0.25000   1.000
    N5      N    0.89123   0.50036   0.24999   1.000
    N6      N    0.39123   0.00036   0.25000   1.000
    N7      N    0.46581   0.74197   0.75000   1.000
    N8      N    0.10873   0.99966   0.75000   1.000
    N9      N    0.30288   0.42577   0.56822   1.000
    N10     N    0.22336   0.25749   0.75000   1.000
    N11     N    0.69714   0.57425   0.06822   1.000
    N12     N    0.60879   0.49966   0.75000   1.000
    N13     N    0.72336   0.25749   0.75000   1.000
    N14     N    0.19714   0.57425   0.06820   1.000
    N15     N    0.03421   0.75806   0.20000   1.000
    N16     N    0.72336   0.75750   0.75000   1.000
    N17     N    0.27666   0.74253   0.25000   1.000
    N18     N    0.27667   0.24252   0.25000   1.000
    N19     N    0.87685   0.07383   0.56844   1.000
    N20     N    0.62317   0.92618   0.06843   1.000
    N21     N    0.37685   0.07383   0.56844   1.000
    N22     N    0.69714   0.07424   0.06822   1.000
    N23     N    0.30288   0.92578   0.56822   1.000
    N24     N    0.53421   0.25805   0.20000   1.000
    N25     N    0.03421   0.25805   0.20000   1.000
    N26     N    0.96581   0.74197   0.75000   1.000
    N27     N    0.96581   0.24196   0.75000   1.000
    N28     N    0.30288   0.92578   0.93170   1.000
    N29     N    0.37685   0.57384   0.56844   1.000
    N30     N    0.22336   0.75750   0.75000   1.000
    N31     N    0.62317   0.42618   0.43156   1.000
    N32     N    0.77666   0.74253   0.25000   1.000
    N33     N    0.87685   0.57384   0.56844   1.000
    N34     N    0.12317   0.42618   0.06843   1.000
    N35     N    0.87685   0.07383   0.93157   1.000
    N36     N    0.62317   0.92619   0.43156   1.000
    N37     N    0.80288   0.92578   0.93179   1.000
    N38     N    0.12317   0.92619   0.43156   1.000
    N39     N    0.19714   0.07424   0.06820   1.000
    N40     N    0.37685   0.57384   0.93157   1.000
    N41     N    0.77666   0.24252   0.25000   1.000
    N42     N    0.19714   0.07424   0.43178   1.000
    N43     N    0.37685   0.07383   0.93157   1.000
    N44     N    0.87685   0.57384   0.93157   1.000
    N45     N    0.80288   0.42577   0.56822   1.000
    N46     N    0.53421   0.75806   0.20000   1.000
    N47     N    0.62317   0.42618   0.06843   1.000
    N48     N    0.69714   0.57425   0.43178   1.000
    N49     N    0.12317   0.92618   0.06843   1.000
    N50     N    0.80288   0.92578   0.56822   1.000
    N51     N    0.30288   0.42578   0.93170   1.000
    N52     N    0.46581   0.24196   0.75000   1.000
    N53     N    0.80288   0.42578   0.93179   1.000
    N54     N    0.19714   0.57425   0.43178   1.000
    Zr55    Zr   0.50765   0.14592   0.75000   1.000
    O56     O    0.49277   0.18319   0.75000   1.000
    O57     O    0.60693   0.19660   0.75000   1.000
    O58     O    0.44901   0.11384   0.83403   1.000
    O59     O    0.44900   0.11384   0.66598   1.000
    Zr60    Zr   0.36124   0.85349   0.75000   1.000
    O61     O    0.30906   0.81623   0.75000   1.000
    O62     O    0.33482   0.88567   0.66588   1.000
    O63     O    0.40999   0.80281   0.75000   1.000
    O64     O    0.33482   0.88567   0.83408   1.000
    Zr65    Zr   0.63879   0.64654   0.25000   1.000
    O66     O    0.66520   0.61436   0.33411   1.000
    O67     O    0.66520   0.61436   0.16588   1.000
    O68     O    0.59003   0.69722   0.23125   1.000
    O69     O    0.69097   0.68380   0.25000   1.000
    Zr70    Zr   0.86123   0.35348   0.75000   1.000
    O71     O    0.83482   0.38566   0.83412   1.000
    O72     O    0.83482   0.38566   0.66588   1.000
    O73     O    0.90999   0.30280   0.75000   1.000
    O74     O    0.80905   0.31622   0.75000   1.000
    Zr75    Zr   0.49237   0.85410   0.24999   1.000
    O76     O    0.55102   0.88618   0.33402   1.000
    O77     O    0.39309   0.80342   0.25000   1.000
    O78     O    0.55102   0.88618   0.16597   1.000
    O79     O    0.50726   0.81683   0.23125   1.000
    Zr80    Zr   0.49237   0.35409   0.24999   1.000
    O81     O    0.39309   0.30341   0.25000   1.000
    O82     O    0.55102   0.38618   0.16597   1.000
    O83     O    0.50726   0.31682   0.23125   1.000
    O84     O    0.55102   0.38618   0.33402   1.000
    Zr85    Zr   0.50765   0.64593   0.75000   1.000
    O86     O    0.60693   0.69661   0.75000   1.000
    O87     O    0.44901   0.61385   0.83403   1.000
    O88     O    0.49277   0.68320   0.75000   1.000
    O89     O    0.44901   0.61384   0.66598   1.000
    Zr90    Zr   0.63879   0.14653   0.25000   1.000
    O91     O    0.66520   0.11435   0.33411   1.000
    O92     O    0.66520   0.11435   0.16588   1.000
    O93     O    0.59003   0.19721   0.23125   1.000
    O94     O    0.69097   0.18379   0.25000   1.000
    Zr95    Zr   0.75001   0.00000   0.50000   1.000
    O96     O    0.73019   0.02784   0.47442   1.000
    O97     O    0.79758   0.02769   0.52566   1.000
    O98     O    0.79606   0.00012   0.41762   1.000
    O99     O    0.70245   0.97232   0.47433   1.000
    O100    O    0.76984   0.97217   0.52558   1.000
    O101    O    0.70397   0.99988   0.58237   1.000
    Zr102   Zr   0.36124   0.35349   0.75000   1.000
    O103    O    0.33482   0.38566   0.66588   1.000
    O104    O    0.40999   0.30280   0.75000   1.000
    O105    O    0.33482   0.38566   0.83408   1.000
    O106    O    0.30906   0.31622   0.75000   1.000
    Zr107   Zr   0.13879   0.64654   0.25000   1.000
    O108    O    0.16520   0.61436   0.33411   1.000
    O109    O    0.16520   0.61436   0.16588   1.000
    O110    O    0.09003   0.69722   0.23125   1.000
    O111    O    0.19097   0.68380   0.25000   1.000
    Zr112   Zr   0.96678   0.34062   0.19083   1.000
    O113    O    0.88029   0.29667   0.22041   1.000
    O114    O    0.03822   0.37944   0.13638   1.000
    O115    O    0.99446   0.31008   0.19541   1.000
    Zr116   Zr   0.25001   1.00000   0.99999   1.000
    O117    O    0.20245   0.97232   0.02565   1.000
    O118    O    0.23018   0.02784   0.02557   1.000
    O119    O    0.20395   0.99988   0.91762   1.000
    O120    O    0.26984   0.97217   0.97438   1.000
    O121    O    0.29605   0.00012   0.08236   1.000
    O122    O    0.29758   0.02769   0.97433   1.000
    Zr123   Zr   0.86123   0.85349   0.75000   1.000
    O124    O    0.80905   0.81623   0.75000   1.000
    O125    O    0.83482   0.88567   0.66588   1.000
    O126    O    0.90999   0.80281   0.75000   1.000
    O127    O    0.83482   0.88567   0.83412   1.000
    Zr128   Zr   0.00765   0.14592   0.74998   1.000
    O129    O    0.99277   0.18319   0.74999   1.000
    O130    O    0.94901   0.11384   0.66595   1.000
    O131    O    0.94901   0.11384   0.83402   1.000
    O132    O    0.10693   0.19661   0.74999   1.000
    Zr133   Zr   0.75001   0.50001   0.00000   1.000
    O134    O    0.70397   0.49989   0.91763   1.000
    O135    O    0.76984   0.47217   0.97442   1.000
    O136    O    0.79758   0.52770   0.97434   1.000
    O137    O    0.73019   0.52785   0.02558   1.000
    O138    O    0.79606   0.50013   0.08237   1.000
    O139    O    0.70245   0.47232   0.02566   1.000
    Zr140   Zr   0.25001   0.00000   0.50000   1.000
    O141    O    0.29605   0.00012   0.41763   1.000
    O142    O    0.23019   0.02784   0.47442   1.000
    O143    O    0.26984   0.97217   0.52558   1.000
    O144    O    0.20245   0.97232   0.47433   1.000
    O145    O    0.20395   0.99988   0.58237   1.000
    O146    O    0.29758   0.02769   0.52566   1.000
    Zr147   Zr   0.00765   0.64593   0.75000   1.000
    O148    O    0.94901   0.61385   0.66598   1.000
    O149    O    0.94901   0.61385   0.83403   1.000
    O150    O    0.99277   0.68320   0.75000   1.000
    O151    O    0.10693   0.69661   0.75000   1.000
    Zr152   Zr   0.99237   0.85410   0.24999   1.000
    O153    O    0.89309   0.80342   0.25000   1.000
    O154    O    0.00726   0.81683   0.23125   1.000
    O155    O    0.05102   0.88618   0.33402   1.000
    O156    O    0.05102   0.88618   0.16597   1.000
    Zr157   Zr   0.13879   0.14653   0.25000   1.000
    O158    O    0.09004   0.19721   0.23125   1.000
    O159    O    0.16520   0.11435   0.16588   1.000
    O160    O    0.16520   0.11435   0.33411   1.000
    O161    O    0.19097   0.18379   0.25000   1.000
    Zr162   Zr   0.25001   0.50001   0.50000   1.000
    O163    O    0.23019   0.52785   0.47442   1.000
    O164    O    0.20395   0.49989   0.58237   1.000
    O165    O    0.29758   0.52770   0.52566   1.000
    O166    O    0.26984   0.47217   0.52558   1.000
    O167    O    0.29605   0.50013   0.41763   1.000
    Zr168   Zr   0.75001   1.00000   0.00000   1.000
    O169    O    0.79758   0.02769   0.97434   1.000
    O170    O    0.70245   0.97232   0.02566   1.000
    O171    O    0.76984   0.97217   0.97442   1.000
    O172    O    0.79606   0.00012   0.08237   1.000
    O173    O    0.73019   0.02784   0.02558   1.000
    O174    O    0.70397   0.99988   0.91763   1.000
    Zr175   Zr   0.75001   0.50001   0.50000   1.000
    O176    O    0.79606   0.50013   0.41762   1.000
    O177    O    0.73019   0.52785   0.47442   1.000
    O178    O    0.76984   0.47217   0.52558   1.000
    O179    O    0.79758   0.52770   0.52566   1.000
    O180    O    0.70245   0.47232   0.47433   1.000
    O181    O    0.70397   0.49989   0.58237   1.000
    Zr182   Zr   0.25001   0.50001   0.99999   1.000
    O183    O    0.20245   0.47232   0.02565   1.000
    O184    O    0.23018   0.52785   0.02557   1.000
    O185    O    0.26984   0.47217   0.97438   1.000
    O186    O    0.20395   0.49989   0.91762   1.000
    O187    O    0.29605   0.50013   0.08236   1.000
    O188    O    0.29758   0.52770   0.97433   1.000
loop_
    _geom_bond_atom_site_label_1
    _geom_bond_atom_site_label_2
    _geom_bond_distance
    _geom_bond_site_symmetry_2
    _ccdc_geom_bond_type
    Zr55   O56       0.96825      .   S
    N52    O56       1.55713      .   S
    Zr55   O57       1.60565      .   S
    N13    O57       1.89667      .   S
    Zr55   O58       1.49442      .   S
    N43    O58       1.78288      .   S
    Zr55   O59       1.49438      .   S
    N21    O59       1.78284      .   S
    Zr60   O61       0.96942      .   S
    N30    O61       1.55812      .   S
    Zr60   O62       1.49475      .   S
    N23    O62       1.78326      .   S
    Zr60   O63       1.60556      .   S
    N7     O63       1.89670      .   S
    Zr60   O64       1.49443      .   S
    N28    O64       1.78274      .   S
    Zr65   O66       1.49475      .   S
    N48    O66       1.78327      .   S
    Zr65   O67       1.49474      .   S
    N11    O67       1.78325      .   S
    Zr65   O68       1.62550      .   S
    N46    O68       1.94330      .   S
    Zr65   O69       0.96942      .   S
    N32    O69       1.55812      .   S
    Zr70   O71       1.49477      .   S
    N53    O71       1.78330      .   S
    Zr70   O72       1.49474      .   S
    N45    O72       1.78325      .   S
    Zr70   O73       1.60555      .   S
    N27    O73       1.89669      .   S
    Zr70   O74       0.96943      .   S
    N13    O74       1.55812      .   S
    Zr75   O76       1.49439      .   S
    N36    O76       1.78285      .   S
    Zr75   O77       1.60565      .   S
    N17    O77       1.89667      .   S
    Zr75   O78       1.49441      .   S
    N20    O78       1.78286      .   S
    Zr75   O79       1.00094      .   S
    N46    O79       1.61353      .   S
    Zr80   O81       1.60565      .   S
    N18    O81       1.89667      .   S
    Zr80   O82       1.49440      .   S
    N47    O82       1.78286      .   S
    Zr80   O83       1.00094      .   S
    N24    O83       1.61352      .   S
    Zr80   O84       1.49440      .   S
    N31    O84       1.78285      .   S
    Zr85   O86       1.60565      .   S
    N16    O86       1.89667      .   S
    Zr85   O87       1.49442      .   S
    N40    O87       1.78288      .   S
    Zr85   O88       0.96825      .   S
    N7     O88       1.55714      .   S
    Zr85   O89       1.49438      .   S
    N29    O89       1.78284      .   S
    Zr90   O91       1.49475      .   S
    N0     O91       1.78327      .   S
    Zr90   O92       1.49474      .   S
    N22    O92       1.78326      .   S
    Zr90   O93       1.62550      .   S
    N24    O93       1.94330      .   S
    Zr90   O94       0.96941      .   S
    N41    O94       1.55811      .   S
    Zr95   O96       0.87721      .   S
    N0     O96       1.46202      .   S
    Zr95   O97       0.87600      .   S
    N19    O97       1.46001      .   S
    Zr95   O98       1.32921      .   S
    N1     O98       2.71767      .   S
    Zr95   O99       0.87593  1_545   S
    N36    O99       1.45989      .   S
    Zr95   O100      0.87709  1_545   S
    N50    O100      1.46182      .   S
    Zr95   O101      1.32913  1_545   S
    N2     O101      2.71770      .   S
    Zr102  O103      1.49474      .   S
    N9     O103      1.78325      .   S
    Zr102  O104      1.60556      .   S
    N52    O104      1.89670      .   S
    Zr102  O105      1.49442      .   S
    N51    O105      1.78274      .   S
    Zr102  O106      0.96942      .   S
    N10    O106      1.55812      .   S
    Zr107  O108      1.49475      .   S
    N54    O108      1.78326      .   S
    Zr107  O109      1.49482      .   S
    N14    O109      1.78338      .   S
    Zr107  O110      1.62549      .   S
    N15    O110      1.94329      .   S
    Zr107  O111      0.96942      .   S
    N17    O111      1.55812      .   S
    Zr112  O113      1.45309      .   S
    N41    O113      1.73465      .   S
    Zr112  O114      1.38976  1_655   S
    N34    O114      1.68100      .   S
    Zr112  O115      0.95022      .   S
    N25    O115      1.53592  1_455   S
    Zr116  O117      0.87594  1_556   S
    N49    O117      1.45990      .   S
    Zr116  O118      0.87719  1_566   S
    N39    O118      1.46198      .   S
    Zr116  O119      1.32923      .   S
    N8     O119      2.71807      .   S
    Zr116  O120      0.87719      .   S
    N28    O120      1.46199      .   S
    Zr116  O121      1.32915  1_566   S
    N6     O121      2.71773      .   S
    Zr116  O122      0.87599  1_565   S
    N43    O122      1.45999      .   S
    Zr123  O124      0.96942      .   S
    N16    O124      1.55812      .   S
    Zr123  O125      1.49474      .   S
    N50    O125      1.78325      .   S
    Zr123  O126      1.60556      .   S
    N26    O126      1.89670      .   S
    Zr123  O127      1.49477      .   S
    N37    O127      1.78330      .   S
    Zr128  O129      0.96826  1_455   S
    N27    O129      1.55715      .   S
    Zr128  O130      1.49439  1_455   S
    N19    O130      1.78261      .   S
    Zr128  O131      1.49454  1_455   S
    N35    O131      1.78299      .   S
    Zr128  O132      1.60566      .   S
    N10    O132      1.89668      .   S
    Zr133  O134      1.32913  1_554   S
    N12    O134      2.71771      .   S
    Zr133  O135      0.87716  1_554   S
    N53    O135      1.46194      .   S
    Zr133  O136      0.87602  1_554   S
    N44    O136      1.46003      .   S
    Zr133  O137      0.87720      .   S
    N11    O137      1.46201      .   S
    Zr133  O138      1.32912      .   S
    N5     O138      2.71767      .   S
    Zr133  O139      0.87599      .   S
    N47    O139      1.45999      .   S
    Zr140  O141      1.32913      .   S
    N6     O141      2.71772      .   S
    Zr140  O142      0.87722      .   S
    N42    O142      1.46203      .   S
    Zr140  O143      0.87709  1_545   S
    N23    O143      1.46181      .   S
    Zr140  O144      0.87593  1_545   S
    N38    O144      1.45989      .   S
    Zr140  O145      1.32927  1_545   S
    N8     O145      2.71813      .   S
    Zr140  O146      0.87600      .   S
    N21    O146      1.46001      .   S
    Zr147  O148      1.49438  1_455   S
    N33    O148      1.78284      .   S
    Zr147  O149      1.49442  1_455   S
    N44    O149      1.78288      .   S
    Zr147  O150      0.96825  1_455   S
    N26    O150      1.55714      .   S
    Zr147  O151      1.60565      .   S
    N30    O151      1.89668      .   S
    Zr152  O153      1.60565      .   S
    N32    O153      1.89668      .   S
    Zr152  O154      1.00094  1_655   S
    N15    O154      1.61353      .   S
    Zr152  O155      1.49440  1_655   S
    N38    O155      1.78285      .   S
    Zr152  O156      1.49441  1_655   S
    N49    O156      1.78286      .   S
    Zr157  O158      1.62549      .   S
    N25    O158      1.94329      .   S
    Zr157  O159      1.49481      .   S
    N39    O159      1.78337      .   S
    Zr157  O160      1.49475      .   S
    N42    O160      1.78326      .   S
    Zr157  O161      0.96942      .   S
    N18    O161      1.55812      .   S
    Zr162  O163      0.87721      .   S
    N54    O163      1.46201      .   S
    Zr162  O164      1.32926      .   S
    N3     O164      2.71809      .   S
    Zr162  O165      0.87600      .   S
    N29    O165      1.46001      .   S
    Zr162  O166      0.87722      .   S
    N9     O166      1.46203      .   S
    Zr162  O167      1.32914      .   S
    N4     O167      2.71772      .   S
    Zr168  O169      0.87601  1_564   S
    N35    O169      1.46002      .   S
    Zr168  O170      0.87592      .   S
    N20    O170      1.45987      .   S
    Zr168  O171      0.87704  1_554   S
    N37    O171      1.46173      .   S
    Zr168  O172      1.32911  1_565   S
    N1     O172      2.71766      .   S
    Zr168  O173      0.87720  1_565   S
    N22    O173      1.46201      .   S
    Zr168  O174      1.32914  1_554   S
    N2     O174      2.71775      .   S
    Zr175  O176      1.32922      .   S
    N5     O176      2.71770      .   S
    Zr175  O177      0.87721      .   S
    N48    O177      1.46202      .   S
    Zr175  O178      0.87722      .   S
    N45    O178      1.46203      .   S
    Zr175  O179      0.87601      .   S
    N33    O179      1.46001      .   S
    Zr175  O180      0.87600      .   S
    N31    O180      1.46000      .   S
    Zr175  O181      1.32912      .   S
    N12    O181      2.71770      .   S
    Zr182  O183      0.87601  1_556   S
    N34    O183      1.46001      .   S
    Zr182  O184      0.87718  1_556   S
    N14    O184      1.46197      .   S
    Zr182  O185      0.87733      .   S
    N51    O185      1.46221      .   S
    Zr182  O186      1.32923      .   S
    N3     O186      2.71806      .   S
    Zr182  O187      1.32917  1_556   S
    N4     O187      2.71776      .   S
    Zr182  O188      0.87599      .   S
    N40    O188      1.45999      .   S
