# CIF file generated by openbabel 2.4.90, see http://openbabel.sf.net
data_I
_chemical_name_common ''
_cell_length_a 15.74
_cell_length_b 23.167
_cell_length_c 13.534
_cell_angle_alpha 90.001
_cell_angle_beta 90
_cell_angle_gamma 109.791
_space_group_name_H-M_alt 'P 1'
_space_group_name_Hall 'P 1'
loop_
    _symmetry_equiv_pos_as_xyz
    x,y,z
loop_
    _atom_site_label
    _atom_site_type_symbol
    _atom_site_fract_x
    _atom_site_fract_y
    _atom_site_fract_z
    _atom_site_occupancy
    Zr0     Zr   0.14260   0.15668   0.25000   1.000
    Zr1     Zr   0.14260   0.65669   0.25000   1.000
    Zr2     Zr   0.64260   0.15668   0.25000   1.000
    Zr3     Zr   0.64260   0.65669   0.25000   1.000
    Zr4     Zr   0.35742   0.34333   0.75000   1.000
    Zr5     Zr   0.35742   0.84334   0.75000   1.000
    Zr6     Zr   0.85742   0.34333   0.75000   1.000
    Zr7     Zr   0.85742   0.84334   0.75000   1.000
    Zr8     Zr   0.48594   0.34403   0.24999   1.000
    Zr9     Zr   0.48594   0.84404   0.24999   1.000
    Zr10    Zr   0.98594   0.34403   0.20000   1.000
    Zr11    Zr   0.98594   0.84404   0.24999   1.000
    Zr12    Zr   0.01409   0.15598   0.75000   1.000
    Zr13    Zr   0.01409   0.65599   0.75000   1.000
    Zr14    Zr   0.51408   0.15598   0.75000   1.000
    Zr15    Zr   0.51408   0.65599   0.75000   1.000
    Zr16    Zr   0.25001   1.00000   0.99999   1.000
    Zr17    Zr   0.25001   0.50001   0.99999   1.000
    Zr18    Zr   0.75001   1.00000   0.00000   1.000
    Zr19    Zr   0.75001   0.50001   0.00000   1.000
    Zr20    Zr   0.25001   0.00000   0.50000   1.000
    Zr21    Zr   0.25001   0.50001   0.50000   1.000
    Zr22    Zr   0.75001   0.00000   0.50000   1.000
    Zr23    Zr   0.75001   0.50001   0.50000   1.000
    Zr24    Zr   0.17504   0.10601   0.12242   1.000
    Zr25    Zr   0.17504   0.60601   0.12242   1.000
    Zr26    Zr   0.67504   0.10600   0.12242   1.000
    Zr27    Zr   0.67504   0.60601   0.12242   1.000
    Zr28    Zr   0.32498   0.39401   0.62242   1.000
    Zr29    Zr   0.32498   0.89401   0.62242   1.000
    Zr30    Zr   0.82498   0.39400   0.62242   1.000
    Zr31    Zr   0.82498   0.89401   0.62242   1.000
    Zr32    Zr   0.06915   0.89451   0.37751   1.000
    Zr33    Zr   0.56915   0.39451   0.37751   1.000
    Zr34    Zr   0.56915   0.89451   0.37751   1.000
    Zr35    Zr   0.43088   0.10551   0.87752   1.000
    Zr36    Zr   0.43088   0.60552   0.87752   1.000
    Zr37    Zr   0.93088   0.10551   0.87752   1.000
    Zr38    Zr   0.93088   0.60552   0.87752   1.000
    Zr39    Zr   0.32499   0.39401   0.87758   1.000
    Zr40    Zr   0.32499   0.89402   0.87758   1.000
    Zr41    Zr   0.82498   0.39401   0.87758   1.000
    Zr42    Zr   0.82498   0.89401   0.87758   1.000
    Zr43    Zr   0.17504   0.10601   0.37758   1.000
    Zr44    Zr   0.17504   0.60601   0.37758   1.000
    Zr45    Zr   0.67504   0.10601   0.37758   1.000
    Zr46    Zr   0.67504   0.60601   0.37758   1.000
    Zr47    Zr   0.43088   0.10551   0.62249   1.000
    Zr48    Zr   0.43088   0.60551   0.62249   1.000
    Zr49    Zr   0.93088   0.10551   0.62240   1.000
    Zr50    Zr   0.93088   0.60552   0.62249   1.000
    Zr51    Zr   0.06914   0.39450   0.12248   1.000
    Zr52    Zr   0.06915   0.89451   0.12248   1.000
    Zr53    Zr   0.56914   0.39450   0.12248   1.000
    Zr54    Zr   0.56914   0.89451   0.12248   1.000
    Zr55    Zr   0.06248   0.21742   0.25000   1.000
    Zr56    Zr   0.06248   0.71742   0.25000   1.000
    Zr57    Zr   0.56248   0.21742   0.25000   1.000
    Zr58    Zr   0.56248   0.71742   0.25000   1.000
    Zr59    Zr   0.43755   0.28260   0.75000   1.000
    Zr60    Zr   0.43755   0.78260   0.75000   1.000
    Zr61    Zr   0.93755   0.28260   0.75000   1.000
    Zr62    Zr   0.93755   0.78260   0.75000   1.000
    Zr63    Zr   0.34525   0.28332   0.25000   1.000
    Zr64    Zr   0.34525   0.78333   0.25000   1.000
    Zr65    Zr   0.84525   0.28332   0.25000   1.000
    Zr66    Zr   0.84525   0.78333   0.25000   1.000
    Zr67    Zr   0.15477   0.21669   0.75000   1.000
    Zr68    Zr   0.15478   0.71670   0.75000   1.000
    Zr69    Zr   0.65477   0.21669   0.75000   1.000
    Zr70    Zr   0.65477   0.71670   0.75000   1.000
    O71     O    0.65882   0.63135   0.18621   1.000
    O72     O    0.65882   0.13134   0.18621   1.000
    O73     O    0.15882   0.63135   0.18621   1.000
    O74     O    0.15882   0.13134   0.18621   1.000
    O75     O    0.52754   0.86928   0.18623   1.000
    O76     O    0.02754   0.36927   0.16124   1.000
    O77     O    0.02754   0.86928   0.18623   1.000
    O78     O    0.52754   0.36927   0.18623   1.000
    O79     O    0.91559   0.31368   0.22500   1.000
    O80     O    0.41560   0.31368   0.24999   1.000
    O81     O    0.52754   0.36927   0.31375   1.000
    O82     O    0.41560   0.81369   0.24999   1.000
    O83     O    0.52754   0.86928   0.31375   1.000
    O84     O    0.91559   0.81369   0.24999   1.000
    O85     O    0.02754   0.86928   0.31375   1.000
    O86     O    0.10254   0.18705   0.25000   1.000
    O87     O    0.15882   0.13134   0.31379   1.000
    O88     O    0.10254   0.68706   0.25000   1.000
    O89     O    0.60254   0.68706   0.25000   1.000
    O90     O    0.60254   0.18705   0.25000   1.000
    O91     O    0.15882   0.63135   0.31379   1.000
    O92     O    0.65882   0.13134   0.31379   1.000
    O93     O    0.65882   0.63135   0.31379   1.000
    O94     O    0.97248   0.13074   0.68620   1.000
    O95     O    0.84120   0.86868   0.68621   1.000
    O96     O    0.34120   0.36867   0.68621   1.000
    O97     O    0.34120   0.86868   0.68621   1.000
    O98     O    0.84120   0.36867   0.68621   1.000
    O99     O    0.97248   0.63075   0.68624   1.000
    O100    O    0.47248   0.13074   0.68624   1.000
    O101    O    0.47248   0.63075   0.68624   1.000
    O102    O    0.58443   0.68634   0.75000   1.000
    O103    O    0.47248   0.63075   0.81376   1.000
    O104    O    0.58443   0.18633   0.75000   1.000
    O105    O    0.47248   0.13074   0.81376   1.000
    O106    O    0.08443   0.68634   0.75000   1.000
    O107    O    0.97248   0.63075   0.81376   1.000
    O108    O    0.08443   0.18634   0.75000   1.000
    O109    O    0.97248   0.13074   0.81376   1.000
    O110    O    0.89748   0.81297   0.75000   1.000
    O111    O    0.84120   0.86868   0.81379   1.000
    O112    O    0.89748   0.31296   0.75000   1.000
    O113    O    0.84120   0.36867   0.81379   1.000
    O114    O    0.39749   0.81297   0.75000   1.000
    O115    O    0.34120   0.86868   0.81379   1.000
    O116    O    0.39748   0.31296   0.75000   1.000
    O117    O    0.34120   0.36867   0.81379   1.000
    N118    N    0.69714   0.07424   0.43178   1.000
    O119    O    0.71036   0.05568   0.44883   1.000
    O120    O    0.69162   0.08218   0.41823   1.000
    N121    N    0.89123   0.00036   0.25000   1.000
    O122    O    0.84210   0.00025   0.33525   1.000
    O123    O    0.84210   0.00025   0.16474   1.000
    N124    N    0.60879   0.99966   0.75000   1.000
    O125    O    0.65793   0.99976   0.66474   1.000
    O126    O    0.65793   0.99976   0.83526   1.000
    N127    N    0.10873   0.49966   0.75000   1.000
    O128    O    0.15789   0.49977   0.66474   1.000
    O129    O    0.15789   0.49977   0.83526   1.000
    N130    N    0.39123   0.50036   0.25000   1.000
    O131    O    0.34210   0.50025   0.16473   1.000
    O132    O    0.34210   0.50025   0.33526   1.000
    N133    N    0.89123   0.50036   0.24999   1.000
    O134    O    0.84210   0.50025   0.16473   1.000
    O135    O    0.84210   0.50025   0.33525   1.000
    N136    N    0.39123   0.00036   0.25000   1.000
    O137    O    0.34210   0.00025   0.16473   1.000
    O138    O    0.34210   0.00025   0.33526   1.000
    N139    N    0.46581   0.74197   0.75000   1.000
    O140    O    0.47788   0.72047   0.75000   1.000
    O141    O    0.45875   0.75213   0.75000   1.000
    N142    N    0.10873   0.99966   0.75000   1.000
    O143    O    0.15789   0.99976   0.83526   1.000
    O144    O    0.15789   0.99976   0.66474   1.000
    N145    N    0.30288   0.42577   0.56822   1.000
    O146    O    0.28966   0.44433   0.55116   1.000
    O147    O    0.30841   0.41783   0.58177   1.000
    N148    N    0.22336   0.25749   0.75000   1.000
    O149    O    0.20621   0.24729   0.75000   1.000
    O150    O    0.25688   0.27895   0.75000   1.000
    N151    N    0.69714   0.57425   0.06822   1.000
    O152    O    0.69162   0.58219   0.08177   1.000
    O153    O    0.71036   0.55569   0.05116   1.000
    N154    N    0.60879   0.49966   0.75000   1.000
    O155    O    0.65793   0.49977   0.83526   1.000
    O156    O    0.65793   0.49977   0.66474   1.000
    N157    N    0.72336   0.25749   0.75000   1.000
    O158    O    0.70621   0.24729   0.75000   1.000
    O159    O    0.75687   0.27895   0.75000   1.000
    N160    N    0.19714   0.57425   0.06820   1.000
    O161    O    0.21036   0.55569   0.05115   1.000
    O162    O    0.19162   0.58219   0.08175   1.000
    N163    N    0.03421   0.75806   0.20000   1.000
    O164    O    0.04128   0.74790   0.21250   1.000
    O165    O    0.02215   0.77956   0.21250   1.000
    N166    N    0.72336   0.75750   0.75000   1.000
    O167    O    0.70621   0.74730   0.75000   1.000
    O168    O    0.75688   0.77896   0.75000   1.000
    N169    N    0.27666   0.74253   0.25000   1.000
    O170    O    0.29381   0.75273   0.25000   1.000
    O171    O    0.24315   0.72107   0.25000   1.000
    N172    N    0.27667   0.24252   0.25000   1.000
    O173    O    0.29381   0.25272   0.25000   1.000
    O174    O    0.24315   0.22106   0.25000   1.000
    N175    N    0.87685   0.07383   0.56844   1.000
    O176    O    0.89036   0.08175   0.58193   1.000
    O177    O    0.84514   0.05538   0.55133   1.000
    N178    N    0.62317   0.92618   0.06843   1.000
    O179    O    0.65488   0.94464   0.05132   1.000
    O180    O    0.60966   0.91827   0.08194   1.000
    N181    N    0.37685   0.07383   0.56844   1.000
    O182    O    0.39036   0.08175   0.58195   1.000
    O183    O    0.34514   0.05537   0.55133   1.000
    N184    N    0.69714   0.07424   0.06822   1.000
    O185    O    0.69162   0.08218   0.08177   1.000
    O186    O    0.71036   0.05568   0.05116   1.000
    N187    N    0.09616   0.41034   0.40453   1.000
    O188    O    0.14138   0.43672   0.43516   1.000
    N189    N    0.30288   0.92578   0.56822   1.000
    O190    O    0.28966   0.94434   0.55116   1.000
    O191    O    0.30841   0.91784   0.58177   1.000
    N192    N    0.53421   0.25805   0.20000   1.000
    O193    O    0.52214   0.27955   0.21250   1.000
    O194    O    0.54128   0.24790   0.21250   1.000
    N195    N    0.03421   0.25805   0.20000   1.000
    O196    O    0.02215   0.27955   0.20000   1.000
    O197    O    0.04128   0.24789   0.21250   1.000
    N198    N    0.96581   0.74197   0.75000   1.000
    O199    O    0.95874   0.75213   0.75000   1.000
    O200    O    0.97788   0.72047   0.75000   1.000
    N201    N    0.96581   0.24196   0.75000   1.000
    O202    O    0.95874   0.25212   0.75000   1.000
    O203    O    0.97788   0.22046   0.75000   1.000
    N204    N    0.30288   0.92578   0.93170   1.000
    O205    O    0.30841   0.91784   0.91817   1.000
    O206    O    0.28966   0.94434   0.94877   1.000
    N207    N    0.37685   0.57384   0.56844   1.000
    O208    O    0.34514   0.55538   0.55133   1.000
    O209    O    0.39036   0.58176   0.58195   1.000
    N210    N    0.22336   0.75750   0.75000   1.000
    O211    O    0.20621   0.74730   0.75000   1.000
    O212    O    0.25688   0.77896   0.75000   1.000
    N213    N    0.62317   0.42618   0.43156   1.000
    O214    O    0.60967   0.41826   0.41805   1.000
    O215    O    0.65488   0.44464   0.44867   1.000
    N216    N    0.77666   0.74253   0.25000   1.000
    O217    O    0.79381   0.75273   0.25000   1.000
    O218    O    0.74315   0.72107   0.25000   1.000
    N219    N    0.87685   0.57384   0.56844   1.000
    O220    O    0.89036   0.58176   0.58195   1.000
    O221    O    0.84514   0.55538   0.55133   1.000
    N222    N    0.12317   0.42618   0.06843   1.000
    O223    O    0.10966   0.41826   0.08194   1.000
    O224    O    0.15488   0.44463   0.05132   1.000
    N225    N    0.87685   0.07383   0.93157   1.000
    O226    O    0.89036   0.08175   0.91806   1.000
    O227    O    0.84514   0.05538   0.94868   1.000
    N228    N    0.62317   0.92619   0.43156   1.000
    O229    O    0.60967   0.91827   0.41805   1.000
    O230    O    0.65488   0.94464   0.44867   1.000
    N231    N    0.80288   0.92578   0.93179   1.000
    O232    O    0.78966   0.94434   0.94884   1.000
    O233    O    0.80841   0.91784   0.91824   1.000
    N234    N    0.12317   0.92619   0.43156   1.000
    O235    O    0.10967   0.91827   0.41805   1.000
    O236    O    0.15488   0.94464   0.44867   1.000
    N237    N    0.19714   0.07424   0.06820   1.000
    O238    O    0.21036   0.05568   0.05115   1.000
    O239    O    0.19162   0.08218   0.08175   1.000
    N240    N    0.37685   0.57384   0.93157   1.000
    O241    O    0.39036   0.58176   0.91806   1.000
    O242    O    0.34514   0.55539   0.94867   1.000
    N243    N    0.77666   0.24252   0.25000   1.000
    O244    O    0.79381   0.25272   0.25000   1.000
    O245    O    0.74315   0.22106   0.25000   1.000
    N246    N    0.19714   0.07424   0.43178   1.000
    O247    O    0.21036   0.05568   0.44883   1.000
    O248    O    0.19162   0.08218   0.41823   1.000
    N249    N    0.37685   0.07383   0.93157   1.000
    O250    O    0.39036   0.08175   0.91806   1.000
    O251    O    0.34514   0.05538   0.94867   1.000
    N252    N    0.87685   0.57384   0.93157   1.000
    O253    O    0.84514   0.55539   0.94868   1.000
    O254    O    0.89036   0.58176   0.91806   1.000
    N255    N    0.80288   0.42577   0.56822   1.000
    O256    O    0.80841   0.41783   0.58177   1.000
    O257    O    0.78966   0.44433   0.55116   1.000
    N258    N    0.53421   0.75806   0.20000   1.000
    O259    O    0.52214   0.77956   0.21250   1.000
    O260    O    0.54128   0.74790   0.21250   1.000
    N261    N    0.62317   0.42618   0.06843   1.000
    O262    O    0.60966   0.41826   0.08194   1.000
    O263    O    0.65488   0.44463   0.05132   1.000
    N264    N    0.69714   0.57425   0.43178   1.000
    O265    O    0.69162   0.58219   0.41823   1.000
    O266    O    0.71036   0.55569   0.44883   1.000
    N267    N    0.12317   0.92618   0.06843   1.000
    O268    O    0.15488   0.94464   0.05132   1.000
    O269    O    0.10966   0.91827   0.08194   1.000
    N270    N    0.80288   0.92578   0.56822   1.000
    O271    O    0.78966   0.94434   0.55116   1.000
    O272    O    0.80841   0.91784   0.58177   1.000
    N273    N    0.30288   0.42578   0.93170   1.000
    O274    O    0.30841   0.41783   0.91817   1.000
    O275    O    0.28966   0.44433   0.94877   1.000
    N276    N    0.46581   0.24196   0.75000   1.000
    O277    O    0.45874   0.25212   0.75000   1.000
    O278    O    0.47788   0.22046   0.75000   1.000
    N279    N    0.80288   0.42578   0.93179   1.000
    O280    O    0.78966   0.44433   0.94884   1.000
    O281    O    0.80841   0.41783   0.91824   1.000
    N282    N    0.19714   0.57425   0.43178   1.000
    O283    O    0.21036   0.55569   0.44883   1.000
    O284    O    0.19162   0.58219   0.41823   1.000
loop_
    _geom_bond_atom_site_label_1
    _geom_bond_atom_site_label_2
    _geom_bond_distance
    _geom_bond_site_symmetry_2
    _ccdc_geom_bond_type
    Zr27   O71       1.12095      .   S
    Zr3    O71       1.12095      .   S
    Zr26   O72       1.12095      .   S
    Zr2    O72       1.12095      .   S
    Zr25   O73       1.12095      .   S
    Zr1    O73       1.12095      .   S
    Zr24   O74       1.12095      .   S
    Zr0    O74       1.12095      .   S
    Zr54   O75       1.12067      .   S
    Zr9    O75       1.12067      .   S
    Zr51   O76       0.88688      .   S
    Zr10   O76       0.88688  1_655   S
    Zr52   O77       1.12068      .   S
    Zr11   O77       1.12068  1_655   S
    Zr53   O78       1.12067      .   S
    Zr8    O78       1.12067      .   S
    Zr10   O79       1.14355      .   S
    Zr65   O79       1.14355      .   S
    Zr8    O80       1.09233      .   S
    Zr63   O80       1.09233      .   S
    Zr8    O81       1.12072      .   S
    Zr33   O81       1.12072      .   S
    Zr9    O82       1.09234      .   S
    Zr64   O82       1.09234      .   S
    Zr9    O83       1.12071      .   S
    Zr34   O83       1.12071      .   S
    Zr11   O84       1.09233      .   S
    Zr66   O84       1.09233      .   S
    Zr11   O85       1.12072  1_655   S
    Zr32   O85       1.12072      .   S
    Zr0    O86       1.09226      .   S
    Zr55   O86       1.09226      .   S
    Zr0    O87       1.12095      .   S
    Zr43   O87       1.12095      .   S
    Zr56   O88       1.09225      .   S
    Zr1    O88       1.09225      .   S
    Zr58   O89       1.09226      .   S
    Zr3    O89       1.09226      .   S
    Zr57   O90       1.09227      .   S
    Zr2    O90       1.09227      .   S
    Zr1    O91       1.12096      .   S
    Zr44   O91       1.12096      .   S
    Zr2    O92       1.12096      .   S
    Zr45   O92       1.12096      .   S
    Zr3    O93       1.12096      .   S
    Zr46   O93       1.12096      .   S
    Zr49   O94       1.12114      .   S
    Zr12   O94       1.12114  1_455   S
    Zr31   O95       1.12095      .   S
    Zr7    O95       1.12095      .   S
    Zr28   O96       1.12096      .   S
    Zr4    O96       1.12096      .   S
    Zr29   O97       1.12096      .   S
    Zr5    O97       1.12096      .   S
    Zr30   O98       1.12095      .   S
    Zr6    O98       1.12095      .   S
    Zr50   O99       1.12067      .   S
    Zr13   O99       1.12067  1_455   S
    Zr47   O100      1.12066      .   S
    Zr14   O100      1.12066      .   S
    Zr48   O101      1.12067      .   S
    Zr15   O101      1.12067      .   S
    Zr15   O102      1.09233      .   S
    Zr70   O102      1.09233      .   S
    Zr15   O103      1.12072      .   S
    Zr36   O103      1.12072      .   S
    Zr14   O104      1.09233      .   S
    Zr69   O104      1.09233      .   S
    Zr14   O105      1.12072      .   S
    Zr35   O105      1.12072      .   S
    Zr13   O106      1.09234      .   S
    Zr68   O106      1.09234      .   S
    Zr13   O107      1.12073  1_455   S
    Zr38   O107      1.12073      .   S
    Zr12   O108      1.09234      .   S
    Zr67   O108      1.09234      .   S
    Zr12   O109      1.12073  1_455   S
    Zr37   O109      1.12073      .   S
    Zr7    O110      1.09225      .   S
    Zr62   O110      1.09225      .   S
    Zr7    O111      1.12094      .   S
    Zr42   O111      1.12094      .   S
    Zr6    O112      1.09227      .   S
    Zr61   O112      1.09227      .   S
    Zr6    O113      1.12094      .   S
    Zr41   O113      1.12094      .   S
    Zr5    O114      1.09225      .   S
    Zr60   O114      1.09225      .   S
    Zr5    O115      1.12095      .   S
    Zr40   O115      1.12095      .   S
    Zr4    O116      1.09226      .   S
    Zr59   O116      1.09226      .   S
    Zr4    O117      1.12095      .   S
    Zr39   O117      1.12095      .   S
    N118   O119      0.58481      .   S
    Zr22   O119      1.75442      .   S
    N118   O120      0.29307      .   S
    Zr45   O120      0.87920      .   S
    N121   O122      1.38852      .   S
    Zr22   O122      2.65842      .   S
    N121   O123      1.38861      .   S
    Zr18   O123      2.65823  1_565   S
    N124   O125      1.38864      .   S
    Zr22   O125      2.65826  1_545   S
    N124   O126      1.38867      .   S
    Zr18   O126      2.65829  1_554   S
    N127   O128      1.38890      .   S
    Zr21   O128      2.65851      .   S
    N127   O129      1.38890      .   S
    Zr17   O129      2.65846      .   S
    N130   O131      1.38866      .   S
    Zr17   O131      2.65834  1_556   S
    N130   O132      1.38865      .   S
    Zr21   O132      2.65827      .   S
    N133   O134      1.38862      .   S
    Zr19   O134      2.65824      .   S
    N133   O135      1.38855      .   S
    Zr23   O135      2.65845      .   S
    N136   O137      1.38864      .   S
    Zr16   O137      2.65831  1_566   S
    N136   O138      1.38865      .   S
    Zr20   O138      2.65827      .   S
    N139   O140      0.59000      .   S
    Zr15   O140      1.77001      .   S
    N139   O141      0.29239      .   S
    Zr60   O141      0.87717      .   S
    N142   O143      1.38891      .   S
    Zr16   O143      2.65846      .   S
    N142   O144      1.38893      .   S
    Zr20   O144      2.65854  1_545   S
    N145   O146      0.58481      .   S
    Zr21   O146      1.75444      .   S
    N145   O147      0.29306      .   S
    Zr28   O147      0.87918      .   S
    N148   O149      0.29239      .   S
    Zr67   O149      0.87716      .   S
    N148   O150      0.58981      .   S
    Zr4    O150      1.76942      .   S
    N151   O152      0.29306      .   S
    Zr27   O152      0.87919      .   S
    N151   O153      0.58480      .   S
    Zr19   O153      1.75441      .   S
    N154   O155      1.38865      .   S
    Zr19   O155      2.65826  1_554   S
    N154   O156      1.38864      .   S
    Zr23   O156      2.65825      .   S
    N157   O158      0.29239      .   S
    Zr69   O158      0.87716      .   S
    N157   O159      0.58980      .   S
    Zr6    O159      1.76941      .   S
    N160   O161      0.58479      .   S
    Zr17   O161      1.75436  1_556   S
    N160   O162      0.29311      .   S
    Zr25   O162      0.87932      .   S
    N163   O164      0.33781      .   S
    Zr56   O164      1.01342      .   S
    N163   O165      0.61377      .   S
    Zr11   O165      1.84131  1_655   S
    N166   O167      0.29239      .   S
    Zr70   O167      0.87716      .   S
    N166   O168      0.58981      .   S
    Zr7    O168      1.76942      .   S
    N169   O170      0.29239      .   S
    Zr64   O170      0.87716      .   S
    N169   O171      0.58980      .   S
    Zr1    O171      1.76941      .   S
    N172   O173      0.29239      .   S
    Zr63   O173      0.87716      .   S
    N172   O174      0.58980      .   S
    Zr0    O174      1.76941      .   S
    N175   O176      0.29286      .   S
    Zr49   O176      0.87859      .   S
    N175   O177      0.58400      .   S
    Zr22   O177      1.75201      .   S
    N178   O179      0.58395      .   S
    Zr18   O179      1.75185      .   S
    N178   O180      0.29306      .   S
    Zr54   O180      0.87917      .   S
    N181   O182      0.29306      .   S
    Zr47   O182      0.87917      .   S
    N181   O183      0.58400      .   S
    Zr20   O183      1.75201      .   S
    N184   O185      0.29307      .   S
    Zr26   O185      0.87920      .   S
    N184   O186      0.58480      .   S
    Zr18   O186      1.75441  1_565   S
    N187   O188      0.87015      .   S
    Zr21   O188      2.03620      .   S
    N189   O190      0.58472      .   S
    Zr20   O190      1.75417  1_545   S
    N189   O191      0.29307      .   S
    Zr29   O191      0.87920      .   S
    N192   O193      0.61376      .   S
    Zr8    O193      1.84129      .   S
    N192   O194      0.33781      .   S
    Zr57   O194      1.01342      .   S
    N195   O196      0.59001      .   S
    Zr10   O196      1.77003  1_655   S
    N195   O197      0.33780      .   S
    Zr55   O197      1.01341      .   S
    N198   O199      0.29239      .   S
    Zr62   O199      0.87718      .   S
    N198   O200      0.59000      .   S
    Zr13   O200      1.77001  1_455   S
    N201   O202      0.29238      .   S
    Zr61   O202      0.87715      .   S
    N201   O203      0.59001      .   S
    Zr12   O203      1.77003  1_455   S
    N204   O205      0.29289      .   S
    Zr40   O205      0.87868      .   S
    N204   O206      0.58480      .   S
    Zr16   O206      1.75439      .   S
    N207   O208      0.58400      .   S
    Zr21   O208      1.75201      .   S
    N207   O209      0.29306      .   S
    Zr48   O209      0.87917      .   S
    N210   O211      0.29239      .   S
    Zr68   O211      0.87716      .   S
    N210   O212      0.58981      .   S
    Zr5    O212      1.76942      .   S
    N213   O214      0.29306      .   S
    Zr33   O214      0.87917      .   S
    N213   O215      0.58400      .   S
    Zr23   O215      1.75200      .   S
    N216   O217      0.29239      .   S
    Zr66   O217      0.87716      .   S
    N216   O218      0.58980      .   S
    Zr3    O218      1.76941      .   S
    N219   O220      0.29305      .   S
    Zr50   O220      0.87916      .   S
    N219   O221      0.58400      .   S
    Zr23   O221      1.75201      .   S
    N222   O223      0.29306      .   S
    Zr51   O223      0.87918      .   S
    N222   O224      0.58401      .   S
    Zr17   O224      1.75202  1_556   S
    N225   O226      0.29306      .   S
    Zr37   O226      0.87917      .   S
    N225   O227      0.58401      .   S
    Zr18   O227      1.75203  1_564   S
    N228   O229      0.29306      .   S
    Zr34   O229      0.87917      .   S
    N228   O230      0.58396      .   S
    Zr22   O230      1.75187  1_545   S
    N231   O232      0.58469      .   S
    Zr18   O232      1.75408  1_554   S
    N231   O233      0.29308      .   S
    Zr42   O233      0.87924      .   S
    N234   O235      0.29305      .   S
    Zr32   O235      0.87916      .   S
    N234   O236      0.58396      .   S
    Zr20   O236      1.75187  1_545   S
    N237   O238      0.58479      .   S
    Zr16   O238      1.75438  1_566   S
    N237   O239      0.29310      .   S
    Zr24   O239      0.87931      .   S
    N240   O241      0.29306      .   S
    Zr36   O241      0.87918      .   S
    N240   O242      0.58400      .   S
    Zr17   O242      1.75199      .   S
    N243   O244      0.29239      .   S
    Zr65   O244      0.87716      .   S
    N243   O245      0.58980      .   S
    Zr2    O245      1.76941      .   S
    N246   O247      0.58481      .   S
    Zr20   O247      1.75443      .   S
    N246   O248      0.29307      .   S
    Zr43   O248      0.87920      .   S
    N249   O250      0.29306      .   S
    Zr35   O250      0.87918      .   S
    N249   O251      0.58400      .   S
    Zr16   O251      1.75199  1_565   S
    N252   O253      0.58401      .   S
    Zr19   O253      1.75204  1_554   S
    N252   O254      0.29306      .   S
    Zr38   O254      0.87917      .   S
    N255   O256      0.29306      .   S
    Zr30   O256      0.87918      .   S
    N255   O257      0.58481      .   S
    Zr23   O257      1.75443      .   S
    N258   O259      0.61377      .   S
    Zr9    O259      1.84130      .   S
    N258   O260      0.33781      .   S
    Zr58   O260      1.01342      .   S
    N261   O262      0.29306      .   S
    Zr53   O262      0.87917      .   S
    N261   O263      0.58399      .   S
    Zr19   O263      1.75198      .   S
    N264   O265      0.29307      .   S
    Zr46   O265      0.87920      .   S
    N264   O266      0.58481      .   S
    Zr23   O266      1.75442      .   S
    N267   O268      0.58396      .   S
    Zr16   O268      1.75189  1_556   S
    N267   O269      0.29306      .   S
    Zr52   O269      0.87917      .   S
    N270   O271      0.58473      .   S
    Zr22   O271      1.75418  1_545   S
    N270   O272      0.29306      .   S
    Zr31   O272      0.87918      .   S
    N273   O274      0.29289      .   S
    Zr39   O274      0.87866      .   S
    N273   O275      0.58489      .   S
    Zr17   O275      1.75466      .   S
    N276   O277      0.29239      .   S
    Zr59   O277      0.87717      .   S
    N276   O278      0.59000      .   S
    Zr14   O278      1.76999      .   S
    N279   O280      0.58478      .   S
    Zr19   O280      1.75433  1_554   S
    N279   O281      0.29308      .   S
    Zr41   O281      0.87924      .   S
    N282   O283      0.58481      .   S
    Zr21   O283      1.75442      .   S
    N282   O284      0.29307      .   S
    Zr44   O284      0.87920      .   S
