# CIF file generated by openbabel 2.4.90, see http://openbabel.sf.net
data_I
_chemical_name_common ''
_cell_length_a 18.445
_cell_length_b 18.422
_cell_length_c 18.413
_cell_angle_alpha 60.144
_cell_angle_beta 60.178
_cell_angle_gamma 60.191
_space_group_name_H-M_alt 'P 1'
_space_group_name_Hall 'P 1'
loop_
    _symmetry_equiv_pos_as_xyz
    x,y,z
loop_
    _atom_site_label
    _atom_site_type_symbol
    _atom_site_fract_x
    _atom_site_fract_y
    _atom_site_fract_z
    _atom_site_occupancy
    Zr0     Zr   0.79327   0.79348   0.61939   1.000
    Zr1     Zr   0.79361   0.79371   0.79380   1.000
    Zr2     Zr   0.61987   0.79318   0.79328   1.000
    Zr3     Zr   0.79320   0.61949   0.79350   1.000
    Zr4     Zr   0.20673   0.20651   0.38062   1.000
    Zr5     Zr   0.20639   0.20628   0.20620   1.000
    Zr6     Zr   0.20680   0.38049   0.20651   1.000
    Zr7     Zr   0.38013   0.20680   0.20673   1.000
    Zr8     Zr   0.61112   0.88880   0.61073   1.000
    Zr9     Zr   0.88887   0.61111   0.88924   1.000
    Zr10    Zr   0.61109   0.61073   0.88880   1.000
    Zr11    Zr   0.88888   0.88920   0.61110   1.000
    Zr12    Zr   0.61136   0.88891   0.88916   1.000
    Zr13    Zr   0.88863   0.61098   0.61090   1.000
    Zr14    Zr   0.11138   0.38901   0.38912   1.000
    Zr15    Zr   0.38864   0.11099   0.11094   1.000
    Zr16    Zr   0.38891   0.38926   0.11119   1.000
    Zr17    Zr   0.11111   0.11080   0.38891   1.000
    Zr18    Zr   0.11115   0.38888   0.11070   1.000
    Zr19    Zr   0.38888   0.11122   0.38920   1.000
    Zr20    Zr   0.75013   0.75000   0.70000   1.000
    Zr21    Zr   0.24987   0.24999   0.25002   1.000
    Zr22    Zr   0.69479   0.86675   0.57103   1.000
    Zr23    Zr   0.86696   0.69493   0.86725   1.000
    Zr24    Zr   0.57168   0.86651   0.69460   1.000
    Zr25    Zr   0.86654   0.57149   0.86708   1.000
    Zr26    Zr   0.69476   0.57108   0.86685   1.000
    Zr27    Zr   0.86658   0.86707   0.57142   1.000
    Zr28    Zr   0.57165   0.69454   0.86640   1.000
    Zr29    Zr   0.86698   0.86714   0.69498   1.000
    Zr30    Zr   0.69503   0.86714   0.86721   1.000
    Zr31    Zr   0.86638   0.57137   0.69476   1.000
    Zr32    Zr   0.57193   0.86656   0.86683   1.000
    Zr33    Zr   0.86654   0.69479   0.57122   1.000
    Zr34    Zr   0.13346   0.30519   0.42879   1.000
    Zr35    Zr   0.30497   0.13287   0.13278   1.000
    Zr36    Zr   0.13362   0.42862   0.30525   1.000
    Zr37    Zr   0.42807   0.13345   0.13316   1.000
    Zr38    Zr   0.42835   0.30545   0.13354   1.000
    Zr39    Zr   0.13342   0.13291   0.42859   1.000
    Zr40    Zr   0.30525   0.42890   0.13317   1.000
    Zr41    Zr   0.13302   0.13285   0.30500   1.000
    Zr42    Zr   0.13304   0.30506   0.13277   1.000
    Zr43    Zr   0.42832   0.13347   0.30542   1.000
    Zr44    Zr   0.13345   0.42849   0.13294   1.000
    Zr45    Zr   0.30521   0.13322   0.42898   1.000
    O46     O    0.12209   0.34697   0.12174   1.000
    O47     O    0.12230   0.40869   0.12182   1.000
    O48     O    0.34681   0.12193   0.12186   1.000
    O49     O    0.40836   0.12222   0.12205   1.000
    O50     O    0.34708   0.40908   0.12218   1.000
    O51     O    0.40863   0.34735   0.12237   1.000
    O52     O    0.16971   0.25567   0.16949   1.000
    O53     O    0.25568   0.16957   0.16949   1.000
    O54     O    0.17013   0.40449   0.16972   1.000
    O55     O    0.40410   0.17012   0.16995   1.000
    O56     O    0.25602   0.40470   0.16984   1.000
    O57     O    0.40424   0.25613   0.17014   1.000
    O58     O    0.16970   0.16956   0.25560   1.000
    O59     O    0.22833   0.31524   0.22827   1.000
    O60     O    0.17021   0.40456   0.25588   1.000
    O61     O    0.31500   0.22840   0.22837   1.000
    O62     O    0.40423   0.17014   0.25607   1.000
    O63     O    0.12206   0.12182   0.34696   1.000
    O64     O    0.12250   0.40881   0.34719   1.000
    O65     O    0.40860   0.12234   0.34731   1.000
    O66     O    0.17007   0.16971   0.40461   1.000
    O67     O    0.17009   0.25585   0.40471   1.000
    O68     O    0.25597   0.16987   0.40480   1.000
    O69     O    0.12226   0.12185   0.40875   1.000
    O70     O    0.12242   0.34710   0.40896   1.000
    O71     O    0.34705   0.12222   0.40909   1.000
    O72     O    0.65295   0.87778   0.59088   1.000
    O73     O    0.74403   0.83011   0.59521   1.000
    O74     O    0.87758   0.65289   0.59106   1.000
    O75     O    0.82991   0.74413   0.59530   1.000
    O76     O    0.87773   0.87814   0.59126   1.000
    O77     O    0.82993   0.83028   0.59541   1.000
    O78     O    0.59140   0.87766   0.65266   1.000
    O79     O    0.87750   0.59118   0.65283   1.000
    O80     O    0.87793   0.87817   0.65304   1.000
    O81     O    0.77170   0.77174   0.65970   1.000
    O82     O    0.59577   0.82985   0.74394   1.000
    O83     O    0.82979   0.59543   0.74413   1.000
    O84     O    0.83030   0.83043   0.74439   1.000
    O85     O    0.68500   0.77159   0.74664   1.000
    O86     O    0.59576   0.74386   0.82984   1.000
    O87     O    0.59590   0.82987   0.83005   1.000
    O88     O    0.74398   0.59529   0.83017   1.000
    O89     O    0.82987   0.59549   0.83029   1.000
    O90     O    0.74432   0.83042   0.83051   1.000
    O91     O    0.83028   0.74432   0.83052   1.000
    O92     O    0.59137   0.65263   0.87760   1.000
    O93     O    0.59164   0.87774   0.87800   1.000
    O94     O    0.65292   0.59091   0.87783   1.000
    O95     O    0.87771   0.59130   0.87816   1.000
    O96     O    0.65319   0.87802   0.87819   1.000
    O97     O    0.87792   0.65302   0.87825   1.000
    O98     O    0.77167   0.68475   0.74675   1.000
    O99     O    0.22830   0.22825   0.31532   1.000
    O100    O    0.22813   0.22813   0.22811   1.000
    N101    N    0.50000   0.00000   0.99999   1.000
    O102    O    0.45869   0.04117   0.04110   1.000
    O103    O    0.54131   0.95881   0.95888   1.000
    N104    N    0.00000   0.99999   0.50001   1.000
    O105    O    0.95879   0.95891   0.54121   1.000
    O106    O    0.04121   0.04108   0.45880   1.000
    N107    N    1.00000   0.49999   0.99992   1.000
    O108    O    0.04122   0.45878   0.04102   1.000
    O109    O    0.95878   0.54120   0.95889   1.000
    N110    N    0.50000   0.99999   0.50001   1.000
    O111    O    0.54121   0.95875   0.54106   1.000
    O112    O    0.45879   0.04124   0.45893   1.000
    N113    N    0.50000   0.49999   0.00001   1.000
    O114    O    0.45880   0.45894   0.04124   1.000
    O115    O    0.54120   0.54105   0.95877   1.000
    N116    N    0.00000   0.49999   0.50000   1.000
    O117    O    0.04131   0.45883   0.45888   1.000
    O118    O    0.95869   0.54115   0.54113   1.000
loop_
    _geom_bond_atom_site_label_1
    _geom_bond_atom_site_label_2
    _geom_bond_distance
    _geom_bond_site_symmetry_2
    _ccdc_geom_bond_type
    Zr18   O46       0.63858      .   S
    Zr42   O46       0.63858      .   S
    Zr18   O47       0.63898      .   S
    Zr44   O47       0.63898      .   S
    Zr15   O48       0.63865      .   S
    Zr35   O48       0.63865      .   S
    Zr15   O49       0.63855      .   S
    Zr37   O49       0.63855      .   S
    Zr16   O50       0.63858      .   S
    Zr40   O50       0.63858      .   S
    Zr16   O51       0.63855      .   S
    Zr38   O51       0.63855      .   S
    Zr42   O52       0.98639      .   S
    Zr5    O52       0.98639      .   S
    Zr35   O53       0.98655      .   S
    Zr5    O53       0.98655      .   S
    Zr44   O54       0.98592      .   S
    Zr6    O54       0.98592      .   S
    Zr37   O55       0.98571      .   S
    Zr7    O55       0.98571      .   S
    Zr40   O56       0.98594      .   S
    Zr6    O56       0.98594      .   S
    Zr38   O57       0.98564      .   S
    Zr7    O57       0.98564      .   S
    Zr5    O58       0.98641      .   S
    Zr41   O58       0.98641      .   S
    Zr6    O59       0.98355      .   S
    Zr21   O59       0.98355      .   S
    Zr6    O60       0.98586      .   S
    Zr36   O60       0.98586      .   S
    Zr7    O61       0.98327      .   S
    Zr21   O61       0.98327      .   S
    Zr7    O62       0.98564      .   S
    Zr43   O62       0.98564      .   S
    Zr41   O63       0.63890      .   S
    Zr17   O63       0.63890      .   S
    Zr36   O64       0.63859      .   S
    Zr14   O64       0.63859      .   S
    Zr43   O65       0.63791      .   S
    Zr19   O65       0.63791      .   S
    Zr4    O66       0.98609      .   S
    Zr39   O66       0.98609      .   S
    Zr4    O67       0.98596      .   S
    Zr34   O67       0.98596      .   S
    Zr4    O68       0.98604      .   S
    Zr45   O68       0.98604      .   S
    Zr17   O69       0.63860      .   S
    Zr39   O69       0.63860      .   S
    Zr14   O70       0.63857      .   S
    Zr34   O70       0.63857      .   S
    Zr19   O71       0.63869      .   S
    Zr45   O71       0.63869      .   S
    Zr22   O72       0.63860      .   S
    Zr8    O72       0.63860      .   S
    Zr22   O73       0.98604      .   S
    Zr0    O73       0.98604      .   S
    Zr33   O74       0.63858      .   S
    Zr13   O74       0.63858      .   S
    Zr33   O75       0.98596      .   S
    Zr0    O75       0.98596      .   S
    Zr27   O76       0.63860      .   S
    Zr11   O76       0.63860      .   S
    Zr27   O77       0.98608      .   S
    Zr0    O77       0.98608      .   S
    Zr8    O78       0.63855      .   S
    Zr24   O78       0.63855      .   S
    Zr13   O79       0.63852      .   S
    Zr31   O79       0.63852      .   S
    Zr11   O80       0.63865      .   S
    Zr29   O80       0.63865      .   S
    Zr0    O81       0.66200      .   S
    Zr20   O81       0.66200      .   S
    Zr24   O82       0.98556      .   S
    Zr2    O82       0.98556      .   S
    Zr31   O83       0.98586      .   S
    Zr3    O83       0.98586      .   S
    Zr29   O84       0.98646      .   S
    Zr1    O84       0.98646      .   S
    Zr20   O85       1.08527      .   S
    Zr2    O85       1.08527      .   S
    Zr2    O86       0.98563      .   S
    Zr28   O86       0.98563      .   S
    Zr2    O87       0.98572      .   S
    Zr32   O87       0.98572      .   S
    Zr3    O88       0.98594      .   S
    Zr26   O88       0.98594      .   S
    Zr3    O89       0.98595      .   S
    Zr25   O89       0.98595      .   S
    Zr1    O90       0.98662      .   S
    Zr30   O90       0.98662      .   S
    Zr1    O91       0.98647      .   S
    Zr23   O91       0.98647      .   S
    Zr28   O92       0.63855      .   S
    Zr10   O92       0.63855      .   S
    Zr32   O93       0.63856      .   S
    Zr12   O93       0.63856      .   S
    Zr26   O94       0.63858      .   S
    Zr10   O94       0.63858      .   S
    Zr25   O95       0.63862      .   S
    Zr9    O95       0.63862      .   S
    Zr30   O96       0.63865      .   S
    Zr12   O96       0.63865      .   S
    Zr23   O97       0.63863      .   S
    Zr9    O97       0.63863      .   S
    Zr20   O98       1.08576      .   S
    Zr3    O98       1.08576      .   S
    Zr21   O99       0.98364      .   S
    Zr4    O99       0.98364      .   S
    Zr21   O100      0.98427      .   S
    Zr5    O100      0.98427      .   S
    N101   O102      1.07348  1_556   S
    Zr15   O102      1.82187      .   S
    N101   O103      1.07353  1_545   S
    Zr12   O103      1.82145      .   S
    N104   O105      1.07371  1_455   S
    Zr11   O105      1.82164      .   S
    N104   O106      1.07372  1_565   S
    Zr17   O106      1.82165      .   S
    N107   O108      1.07394  1_656   S
    Zr18   O108      1.82149      .   S
    N107   O109      1.07302      .   S
    Zr9    O109      1.82088      .   S
    N110   O111      1.07335      .   S
    Zr8    O111      1.82104      .   S
    N110   O112      1.07359  1_565   S
    Zr19   O112      1.82187      .   S
    N113   O114      1.07329      .   S
    Zr16   O114      1.82096      .   S
    N113   O115      1.07329  1_554   S
    Zr10   O115      1.82096      .   S
    N116   O117      1.07339      .   S
    Zr14   O117      1.82101      .   S
    N116   O118      1.07346  1_455   S
    Zr13   O118      1.82121      .   S
