# CIF file generated by openbabel 2.4.90, see http://openbabel.sf.net
data_I
_chemical_name_common 'VESTA_phase_1'
_cell_length_a 13.215
_cell_length_b 17.408
_cell_length_c 17.409
_cell_angle_alpha 81.734
_cell_angle_beta 67.678
_cell_angle_gamma 67.69
_space_group_name_H-M_alt 'P 1'
_space_group_name_Hall 'P 1'
loop_
    _symmetry_equiv_pos_as_xyz
    x,y,z
loop_
    _atom_site_label
    _atom_site_type_symbol
    _atom_site_fract_x
    _atom_site_fract_y
    _atom_site_fract_z
    _atom_site_occupancy
    Cu0     Cu   0.36256   0.24984   0.77479   1.000
    Cu1     Cu   0.88730   0.25008   0.72528   1.000
    Cu2     Cu   0.63736   0.22527   0.75014   1.000
    Cu3     Cu   0.11274   0.27477   0.74989   1.000
    Cu4     Cu   0.63743   0.75017   0.22520   1.000
    Cu5     Cu   0.11266   0.74990   0.27476   1.000
    Cu6     Cu   0.36259   0.77475   0.24988   1.000
    Cu7     Cu   0.88722   0.72520   0.25016   1.000
    H8      H    0.20450   0.18626   0.95502   1.000
    H9      H    0.25111   0.15348   0.85211   1.000
    H10     H    0.28266   0.00743   0.89680   1.000
    H11     H    0.13908   0.07103   0.95479   1.000
    H12     H    0.84591   0.31365   0.54512   1.000
    H13     H    0.75682   0.34639   0.64805   1.000
    H14     H    0.68684   0.49243   0.60336   1.000
    H15     H    0.66494   0.42877   0.54542   1.000
    H16     H    0.65944   0.04520   0.68648   1.000
    H17     H    0.60320   0.14811   0.65370   1.000
    H18     H    0.67934   0.10331   0.50770   1.000
    H19     H    0.59366   0.04545   0.57130   1.000
    H20     H    0.89076   0.45507   0.81374   1.000
    H21     H    0.90457   0.35216   0.84639   1.000
    H22     H    0.79003   0.39689   0.99251   1.000
    H23     H    0.71008   0.45485   0.92896   1.000
    H24     H    0.15416   0.45504   0.68625   1.000
    H25     H    0.24329   0.35212   0.65350   1.000
    H26     H    0.31315   0.39680   0.50744   1.000
    H27     H    0.33509   0.45478   0.57104   1.000
    H28     H    0.79538   0.04513   0.81363   1.000
    H29     H    0.74870   0.14804   0.84644   1.000
    H30     H    0.71728   0.10329   0.99246   1.000
    H31     H    0.86086   0.04538   0.92879   1.000
    H32     H    0.10923   0.18628   0.54497   1.000
    H33     H    0.09539   0.15360   0.64787   1.000
    H34     H    0.20989   0.00750   0.60312   1.000
    H35     H    0.28989   0.07104   0.54517   1.000
    H36     H    0.34043   0.31355   0.95487   1.000
    H37     H    0.39676   0.34624   0.85195   1.000
    H38     H    0.32071   0.49229   0.89669   1.000
    H39     H    0.40629   0.42866   0.95459   1.000
    H40     H    0.79551   0.81375   0.04500   1.000
    H41     H    0.74884   0.84657   0.14792   1.000
    H42     H    0.71729   0.99261   0.10315   1.000
    H43     H    0.86088   0.92900   0.04523   1.000
    H44     H    0.15407   0.68634   0.45491   1.000
    H45     H    0.24315   0.65357   0.35198   1.000
    H46     H    0.31312   0.50754   0.39669   1.000
    H47     H    0.33502   0.57121   0.45462   1.000
    H48     H    0.34045   0.95484   0.31355   1.000
    H49     H    0.39672   0.85194   0.34628   1.000
    H50     H    0.32061   0.89671   0.49232   1.000
    H51     H    0.40626   0.95459   0.42860   1.000
    H52     H    0.10921   0.54489   0.18627   1.000
    H53     H    0.09542   0.64780   0.15365   1.000
    H54     H    0.20997   0.60310   0.00752   1.000
    H55     H    0.28992   0.54512   0.07107   1.000
    H56     H    0.84578   0.54495   0.31380   1.000
    H57     H    0.75666   0.64787   0.34653   1.000
    H58     H    0.68680   0.60318   0.49261   1.000
    H59     H    0.66486   0.54521   0.42901   1.000
    H60     H    0.20460   0.95488   0.18636   1.000
    H61     H    0.25129   0.85197   0.15355   1.000
    H62     H    0.28269   0.89673   0.00753   1.000
    H63     H    0.13912   0.95463   0.07120   1.000
    H64     H    0.89070   0.81373   0.45511   1.000
    H65     H    0.90454   0.84638   0.35220   1.000
    H66     H    0.79005   0.99249   0.39693   1.000
    H67     H    0.71004   0.92896   0.45489   1.000
    H68     H    0.65961   0.68645   0.04508   1.000
    H69     H    0.60322   0.65380   0.14801   1.000
    H70     H    0.67927   0.50773   0.10331   1.000
    H71     H    0.59370   0.57136   0.04500   1.000
    H72     H    0.19850   0.07279   0.07290   1.000
    H73     H    0.84420   0.42710   0.42726   1.000
    H74     H    0.77123   0.92727   0.57300   1.000
    H75     H    0.77134   0.57294   0.92724   1.000
    H76     H    0.15576   0.57288   0.57279   1.000
    H77     H    0.80150   0.92721   0.92710   1.000
    H78     H    0.22867   0.07275   0.42706   1.000
    H79     H    0.22866   0.42704   0.07274   1.000
    C80     C    0.38722   0.11955   0.90190   1.000
    C81     C    0.44095   0.05896   0.95285   1.000
    C82     C    0.26366   0.13375   0.91180   1.000
    C83     C    0.23173   0.05656   0.94450   1.000
    C84     C    0.90875   0.38040   0.59818   1.000
    C85     C    0.95279   0.44101   0.54720   1.000
    C86     C    0.80930   0.36615   0.58835   1.000
    C87     C    0.73278   0.44331   0.55569   1.000
    C88     C    0.78913   0.09819   0.61970   1.000
    C89     C    0.89379   0.04718   0.55907   1.000
    C90     C    0.67541   0.08837   0.63397   1.000
    C91     C    0.67608   0.05567   0.55680   1.000
    C92     C    0.00677   0.40185   0.88040   1.000
    C93     C    0.99993   0.45286   0.94099   1.000
    C94     C    0.89741   0.41183   0.86619   1.000
    C95     C    0.78825   0.44455   0.94340   1.000
    C96     C    0.09132   0.40189   0.61950   1.000
    C97     C    0.04722   0.45284   0.55899   1.000
    C98     C    0.19077   0.41179   0.63377   1.000
    C99     C    0.26723   0.44447   0.55656   1.000
    C100    C    0.61266   0.09815   0.88042   1.000
    C101    C    0.55900   0.04716   0.94101   1.000
    C102    C    0.73621   0.08832   0.86616   1.000
    C103    C    0.76821   0.05563   0.94332   1.000
    C104    C    0.99319   0.11961   0.59813   1.000
    C105    C    0.00000   0.05900   0.54717   1.000
    C106    C    0.10257   0.13381   0.58819   1.000
    C107    C    0.21171   0.05659   0.55546   1.000
    C108    C    0.21084   0.38036   0.90179   1.000
    C109    C    0.10616   0.44095   0.95284   1.000
    C110    C    0.32453   0.36604   0.91167   1.000
    C111    C    0.32390   0.44321   0.94430   1.000
    C112    C    0.61276   0.88047   0.09810   1.000
    C113    C    0.55905   0.94103   0.04713   1.000
    C114    C    0.73632   0.86627   0.08822   1.000
    C115    C    0.76824   0.94347   0.05550   1.000
    C116    C    0.09122   0.61957   0.40186   1.000
    C117    C    0.04716   0.55898   0.45285   1.000
    C118    C    0.19067   0.63383   0.41169   1.000
    C119    C    0.26718   0.55666   0.44435   1.000
    C120    C    0.21080   0.90182   0.38035   1.000
    C121    C    0.10614   0.95283   0.44098   1.000
    C122    C    0.32452   0.91166   0.36605   1.000
    C123    C    0.32385   0.94435   0.44322   1.000
    C124    C    0.99322   0.59812   0.11959   1.000
    C125    C    0.00000   0.54714   0.05900   1.000
    C126    C    0.10258   0.58815   0.13382   1.000
    C127    C    0.21174   0.55543   0.05660   1.000
    C128    C    0.90863   0.59810   0.38049   1.000
    C129    C    0.95274   0.54714   0.44106   1.000
    C130    C    0.80918   0.58820   0.36628   1.000
    C131    C    0.73272   0.55552   0.44349   1.000
    C132    C    0.38733   0.90185   0.11957   1.000
    C133    C    0.44099   0.95284   0.05898   1.000
    C134    C    0.26377   0.91169   0.13383   1.000
    C135    C    0.23178   0.94438   0.05667   1.000
    C136    C    0.00674   0.88040   0.40191   1.000
    C137    C    0.99989   0.94100   0.45288   1.000
    C138    C    0.89736   0.86618   0.41187   1.000
    C139    C    0.78823   0.94341   0.44459   1.000
    C140    C    0.78917   0.61967   0.09817   1.000
    C141    C    0.89383   0.55905   0.04710   1.000
    C142    C    0.67547   0.63398   0.08831   1.000
    C143    C    0.67610   0.55680   0.05564   1.000
    C144    C    0.38084   0.01220   0.01225   1.000
    C145    C    0.25645   0.02435   0.02446   1.000
    C146    C    0.90525   0.48775   0.48784   1.000
    C147    C    0.80522   0.47555   0.47570   1.000
    C148    C    0.89300   0.98780   0.51232   1.000
    C149    C    0.78075   0.97567   0.52450   1.000
    C150    C    0.89304   0.51230   0.98779   1.000
    C151    C    0.78079   0.52452   0.97566   1.000
    C152    C    0.09470   0.51223   0.51221   1.000
    C153    C    0.19473   0.52444   0.52435   1.000
    C154    C    0.61915   0.98780   0.98774   1.000
    C155    C    0.74353   0.97566   0.97554   1.000
    C156    C    0.10693   0.01221   0.48773   1.000
    C157    C    0.21918   0.02434   0.47549   1.000
    C158    C    0.10695   0.48771   0.01220   1.000
    C159    C    0.21920   0.47547   0.02433   1.000
    I160    I    0.49995   0.32941   0.67066   1.000
    I161    I    0.99999   0.17064   0.82942   1.000
    I162    I    0.67047   0.32955   0.82952   1.000
    I163    I    0.32951   0.17051   0.67040   1.000
    I164    I    0.50002   0.67059   0.32934   1.000
    I165    I    0.99997   0.82936   0.17063   1.000
    I166    I    0.32947   0.67048   0.17052   1.000
    I167    I    0.67046   0.82947   0.32955   1.000
    N168    N    0.44288   0.16431   0.84561   1.000
    N169    N    0.95290   0.33568   0.65446   1.000
    N170    N    0.78854   0.15452   0.66441   1.000
    N171    N    0.10723   0.34559   0.83560   1.000
    N172    N    0.04720   0.34559   0.66432   1.000
    N173    N    0.55696   0.15444   0.83500   1.000
    N174    N    0.89275   0.16437   0.65440   1.000
    N175    N    0.21140   0.33556   0.84555   1.000
    N176    N    0.55711   0.83569   0.15430   1.000
    N177    N    0.04703   0.66432   0.34560   1.000
    N178    N    0.21138   0.84552   0.33560   1.000
    N179    N    0.89278   0.65445   0.16436   1.000
    N180    N    0.95278   0.65437   0.33570   1.000
    N181    N    0.44301   0.84558   0.16432   1.000
    N182    N    0.10719   0.83561   0.34559   1.000
    N183    N    0.78858   0.66439   0.15449   1.000
loop_
    _geom_bond_atom_site_label_1
    _geom_bond_atom_site_label_2
    _geom_bond_distance
    _geom_bond_site_symmetry_2
    _ccdc_geom_bond_type
    H54    C127      1.10265      .   S
    H62    C135      1.10257      .   S
    C158   C159      1.50848      .   S
    C158   C125      1.41045      .   S
    C158   C109      1.40960  1_554   S
    C144   C145      1.50847      .   S
    C144   C133      1.40975  1_545   S
    C144   C81       1.40990  1_554   S
    C159   C127      1.53016      .   S
    C159   H79       1.11015      .   S
    C159   C111      1.53020  1_554   S
    C145   C135      1.52980  1_545   S
    C145   H72       1.11007      .   S
    C145   C83       1.52998  1_554   S
    H40    C114      1.10524      .   S
    H71    C143      1.10201      .   S
    H68    C142      1.10518      .   S
    H43    C115      1.09857      .   S
    C141   C125      1.42896  1_655   S
    C141   C140      1.42990      .   S
    C141   C150      1.40889  1_554   S
    C113   C133      1.42934      .   S
    C113   C112      1.42968      .   S
    C113   C154      1.40986  1_554   S
    C115   C114      1.52842      .   S
    C115   H42       1.10258      .   S
    C115   C155      1.52980  1_554   S
    C143   C142      1.52840      .   S
    C143   H70       1.10253      .   S
    C143   C151      1.52973  1_554   S
    C127   H55       1.09853      .   S
    C127   C126      1.52834      .   S
    C135   H63       1.09854      .   S
    C135   C134      1.52837      .   S
    C133   C132      1.42970      .   S
    C125   C124      1.43000  1_455   S
    C114   C112      1.49973      .   S
    C114   H41       1.10014      .   S
    C142   C140      1.49957      .   S
    C142   H69       1.09999      .   S
    C112   N176      1.33232      .   S
    C140   N183      1.33286      .   S
    C132   C134      1.49962      .   S
    C132   N181      1.33287      .   S
    C124   C126      1.49986  1_655   S
    C124   N179      1.33293      .   S
    C126   H53       1.10013      .   S
    C126   H52       1.10519      .   S
    C134   H61       1.10015      .   S
    C134   H60       1.10503      .   S
    N176   N181      1.39471      .   S
    N176   Cu4       2.03313      .   S
    N183   N179      1.39496      .   S
    N183   Cu4       2.03253      .   S
    N181   Cu6       2.03291      .   S
    N179   Cu7       2.03226      .   S
    I166   Cu5       2.67923      .   S
    I165   Cu5       2.68006  1_655   S
    Cu6    I164      2.68078      .   S
    Cu6    N178      2.03270      .   S
    Cu7    I167      2.67893      .   S
    Cu7    N180      2.03213      .   S
    Cu5    N182      2.03245      .   S
    Cu5    N177      2.03293      .   S
    H48    C122      1.10506      .   S
    H56    C130      1.10502      .   S
    N178   N182      1.39498      .   S
    N178   C120      1.33289      .   S
    N180   N177      1.39512  1_655   S
    N180   C128      1.33294      .   S
    N182   C136      1.33291      .   S
    N177   C116      1.33303      .   S
    H49    C122      1.10010      .   S
    H57    C130      1.10014      .   S
    H45    C118      1.10012      .   S
    H65    C138      1.10008      .   S
    C122   C120      1.49958      .   S
    C122   C123      1.52835      .   S
    C130   C128      1.49975      .   S
    C130   C131      1.52844      .   S
    C120   C121      1.42961      .   S
    C128   C129      1.42968      .   S
    H46    C119      1.10253      .   S
    H66    C139      1.10252      .   S
    C116   C118      1.49963      .   S
    C116   C117      1.42963      .   S
    C136   C138      1.49981  1_455   S
    C136   C137      1.42978  1_455   S
    C118   C119      1.52838      .   S
    C118   H44       1.10511      .   S
    C138   C139      1.52845      .   S
    C138   H64       1.10509      .   S
    H78    C157      1.11017      .   S
    H73    C147      1.11015      .   S
    H51    C123      1.09830      .   S
    H59    C131      1.09858      .   S
    C121   C137      1.42928  1_455   S
    C121   C156      1.40974  1_565   S
    C129   C117      1.42948  1_655   S
    C129   C146      1.41002      .   S
    C123   C157      1.52977  1_565   S
    C123   H50       1.10257      .   S
    C131   C147      1.53013      .   S
    C131   H58       1.10250      .   S
    C119   H47       1.09861      .   S
    C119   C153      1.53012      .   S
    C139   H67       1.09853      .   S
    C139   C149      1.52920      .   S
    C117   C152      1.41000      .   S
    C137   C148      1.41004      .   S
    C157   C156      1.50845      .   S
    C157   C107      1.53011      .   S
    C147   C146      1.50850      .   S
    C147   C87       1.53005      .   S
    C156   C105      1.41025      .   S
    C146   C85       1.40998      .   S
    H26    C99       1.10255      .   S
    H18    C91       1.10248      .   S
    C152   C153      1.50854      .   S
    C152   C97       1.41006      .   S
    C148   C149      1.50872      .   S
    C148   C89       1.40974  1_565   S
    C153   C99       1.53011      .   S
    C153   H76       1.11017      .   S
    C149   C91       1.52991  1_565   S
    C149   H74       1.11079      .   S
    H32    C106      1.10507      .   S
    H12    C86       1.10506      .   S
    H35    C107      1.09856      .   S
    H15    C87       1.09856      .   S
    C105   C89       1.42878  1_455   S
    C105   C104      1.42997  1_455   S
    C85    C97       1.42951  1_655   S
    C85    C84       1.42970      .   S
    C107   C106      1.52841      .   S
    C107   H34       1.10262      .   S
    C87    C86       1.52841      .   S
    C87    H14       1.10255      .   S
    C99    H27       1.09855      .   S
    C99    C98       1.52846      .   S
    C91    H19       1.09865      .   S
    C91    C90       1.52836      .   S
    C97    C96       1.42871      .   S
    C89    C88       1.42956      .   S
    C106   C104      1.49979  1_455   S
    C106   H33       1.10013      .   S
    C86    C84       1.49968      .   S
    C86    H13       1.10010      .   S
    C104   N174      1.33228      .   S
    C84    N169      1.33283      .   S
    C96    C98       1.50038      .   S
    C96    N172      1.33327      .   S
    C88    C90       1.49958      .   S
    C88    N170      1.33289      .   S
    C98    H25       1.09992      .   S
    C98    H24       1.10505      .   S
    C90    H17       1.10005      .   S
    C90    H16       1.10508      .   S
    N174   N170      1.39460      .   S
    N174   Cu1       2.03322      .   S
    N169   N172      1.39514  1_655   S
    N169   Cu1       2.03292      .   S
    N172   Cu3       2.03228      .   S
    N170   Cu2       2.03250      .   S
    I163   Cu3       2.67940      .   S
    I160   Cu2       2.68078      .   S
    Cu1    I161      2.68015      .   S
    Cu3    N171      2.03209      .   S
    Cu2    I162      2.67953      .   S
    Cu2    N173      2.02742      .   S
    Cu0    N175      2.03240      .   S
    Cu0    N168      2.03221      .   S
    H28    C102      1.10506      .   S
    H20    C94       1.10506      .   S
    N173   N168      1.39185      .   S
    N173   C100      1.34126      .   S
    N171   N175      1.39491      .   S
    N171   C92       1.33270      .   S
    N175   C108      1.33283      .   S
    N168   C80       1.33291      .   S
    H21    C94       1.10007      .   S
    H29    C102      1.10013      .   S
    H37    C110      1.10009      .   S
    H9     C82       1.10018      .   S
    C102   C100      1.49960      .   S
    C102   C103      1.52836      .   S
    C94    C92       1.49956  1_655   S
    C94    C95       1.52819      .   S
    C92    C93       1.43012  1_455   S
    C100   C101      1.42968      .   S
    H38    C111      1.10200      .   S
    H10    C83       1.10299      .   S
    C108   C110      1.49962      .   S
    C108   C109      1.42958      .   S
    C80    C82       1.49966      .   S
    C80    C81       1.42970      .   S
    C110   C111      1.52795      .   S
    C110   H36       1.10510      .   S
    C82    C83       1.52837      .   S
    C82    H8        1.10508      .   S
    H77    C155      1.11013      .   S
    H75    C151      1.11013      .   S
    H31    C103      1.09853      .   S
    H23    C95       1.09835      .   S
    C93    C109      1.42935  1_655   S
    C93    C150      1.40999      .   S
    C101   C81       1.42935      .   S
    C101   C154      1.40982  1_545   S
    C103   C155      1.52984  1_545   S
    C103   H30       1.10261      .   S
    C95    C151      1.53029      .   S
    C95    H22       1.10287      .   S
    C111   H39       1.09892      .   S
    C83    H11       1.09853      .   S
    C155   C154      1.50845      .   S
    C151   C150      1.50850      .   S
