# CIF file generated by openbabel 2.4.90, see http://openbabel.sf.net
data_I
_chemical_name_common ''
_cell_length_a 17.215
_cell_length_b 17.395
_cell_length_c 18.482
_cell_angle_alpha 90.039
_cell_angle_beta 90.019
_cell_angle_gamma 90.14
_space_group_name_H-M_alt 'P 1'
_space_group_name_Hall 'P 1'
loop_
    _symmetry_equiv_pos_as_xyz
    x,y,z
loop_
    _atom_site_label
    _atom_site_type_symbol
    _atom_site_fract_x
    _atom_site_fract_y
    _atom_site_fract_z
    _atom_site_occupancy
    Zr0     Zr   0.77285   0.99387   0.52180   1.000
    Zr1     Zr   0.27392   0.50669   0.47779   1.000
    Zr2     Zr   0.27274   0.99370   0.97863   1.000
    Zr3     Zr   0.77389   0.50682   0.02203   1.000
    Zr4     Zr   0.72727   0.00628   0.02134   1.000
    Zr5     Zr   0.22612   0.49317   0.97794   1.000
    Zr6     Zr   0.22717   0.00613   0.47818   1.000
    Zr7     Zr   0.72609   0.49330   0.52210   1.000
    N8      N    0.98046   0.31589   0.45847   1.000
    O9      O    0.90165   0.17548   0.49009   1.000
    O10     O    0.09532   0.40216   0.46170   1.000
    N11     N    0.01956   0.68411   0.54150   1.000
    O12     O    0.09837   0.82452   0.50990   1.000
    O13     O    0.90469   0.59783   0.53823   1.000
    N14     N    0.01993   0.81548   0.04119   1.000
    O15     O    0.90538   0.90169   0.03774   1.000
    O16     O    0.09825   0.67502   0.00965   1.000
    N17     N    0.25714   0.68732   0.75824   1.000
    O18     O    0.26078   0.60594   0.64758   1.000
    N19     N    0.48045   0.31594   0.04178   1.000
    O20     O    0.40168   0.17527   0.01070   1.000
    O21     O    0.59530   0.40226   0.03833   1.000
    N22     N    0.75725   0.81290   0.24188   1.000
    O23     O    0.76035   0.89448   0.35230   1.000
    N24     N    0.25705   0.81268   0.25824   1.000
    O25     O    0.26011   0.89426   0.14795   1.000
    N26     N    0.75710   0.68741   0.74165   1.000
    O27     O    0.76072   0.60605   0.85227   1.000
    N28     N    0.74297   0.18714   0.74169   1.000
    O29     O    0.73991   0.10564   0.85201   1.000
    N30     N    0.24291   0.31257   0.25827   1.000
    O31     O    0.23929   0.39393   0.14767   1.000
    N32     N    0.51956   0.68405   0.95819   1.000
    O33     O    0.40470   0.59773   0.96164   1.000
    O34     O    0.59832   0.82472   0.98927   1.000
    N35     N    0.98008   0.18451   0.95831   1.000
    O36     O    0.09462   0.09829   0.96199   1.000
    O37     O    0.90176   0.32496   0.99008   1.000
    N38     N    0.51991   0.81550   0.45878   1.000
    O39     O    0.40534   0.90166   0.46206   1.000
    O40     O    0.59824   0.67510   0.49036   1.000
    N41     N    0.24276   0.18691   0.75806   1.000
    O42     O    0.23967   0.10543   0.64766   1.000
    N43     N    0.74287   0.31267   0.24171   1.000
    O44     O    0.73922   0.39405   0.35236   1.000
    N45     N    0.48009   0.18449   0.54116   1.000
    O46     O    0.40177   0.32489   0.50958   1.000
    O47     O    0.59466   0.09834   0.53790   1.000
    O48     O    0.73241   0.18457   0.14844   1.000
    O49     O    0.73184   0.31526   0.64892   1.000
    O50     O    0.76761   0.81550   0.64855   1.000
    O51     O    0.23173   0.31510   0.85095   1.000
    O52     O    0.26760   0.81542   0.85152   1.000
    O53     O    0.23240   0.18449   0.35140   1.000
    O54     O    0.26818   0.68465   0.35101   1.000
    O55     O    0.76828   0.68481   0.14900   1.000
loop_
    _geom_bond_atom_site_label_1
    _geom_bond_atom_site_label_2
    _geom_bond_distance
    _geom_bond_site_symmetry_2
    _ccdc_geom_bond_type
    N8     O9        2.85198      .   S
    Zr0    O9        3.89980  1_565   S
    N8     O10       2.48021  1_655   S
    Zr1    O10       3.58024      .   S
    N11    O12       2.85196      .   S
    Zr6    O12       3.89980  1_545   S
    N11    O13       2.48029  1_455   S
    Zr7    O13       3.58047      .   S
    N14    O15       2.48107  1_455   S
    Zr4    O15       3.58202  1_545   S
    N14    O16       2.85343      .   S
    Zr5    O16       3.90227  1_556   S
    N17    O18       2.48752      .   S
    Zr1    O18       3.58805      .   S
    N19    O20       2.85260      .   S
    Zr2    O20       3.90080  1_566   S
    N19    O21       2.48079      .   S
    Zr3    O21       3.58099      .   S
    N22    O23       2.48543      .   S
    Zr0    O23       3.58324      .   S
    N24    O25       2.48511      .   S
    Zr2    O25       3.58303  1_556   S
    N26    O27       2.48822      .   S
    Zr3    O27       3.58932  1_554   S
    N28    O29       2.48452      .   S
    Zr4    O29       3.58257  1_554   S
    N30    O31       2.48789      .   S
    Zr5    O31       3.58901  1_556   S
    N32    O33       2.48078      .   S
    Zr5    O33       3.58095      .   S
    N32    O34       2.85262      .   S
    Zr4    O34       3.90081  1_544   S
    N35    O36       2.48120  1_655   S
    Zr2    O36       3.58241  1_565   S
    N35    O37       2.85433      .   S
    Zr3    O37       3.90296  1_554   S
    N38    O39       2.48080      .   S
    Zr6    O39       3.58141  1_545   S
    N38    O40       2.85322      .   S
    Zr7    O40       3.90193      .   S
    N41    O42       2.48416      .   S
    Zr6    O42       3.58209      .   S
    N43    O44       2.48733      .   S
    Zr7    O44       3.58729      .   S
    N45    O46       2.85322      .   S
    Zr1    O46       3.90203      .   S
    N45    O47       2.48081      .   S
    Zr0    O47       3.58144  1_565   S
    Zr4    O48       3.89005      .   S
    N43    O48       2.82163      .   S
    Zr7    O49       3.88674      .   S
    N28    O49       2.81971      .   S
    Zr0    O50       3.89003      .   S
    N26    O50       2.82158      .   S
    Zr5    O51       3.88654      .   S
    N41    O51       2.81998      .   S
    Zr2    O52       3.89013      .   S
    N17    O52       2.82173      .   S
    Zr6    O53       3.89015      .   S
    N30    O53       2.82176      .   S
    Zr1    O54       3.88501      .   S
    N24    O54       2.81844      .   S
    Zr3    O55       3.88513      .   S
    N22    O55       2.81855      .   S
