# CIF file generated by openbabel 2.4.90, see http://openbabel.sf.net
data_I
_chemical_name_common ''
_cell_length_a 13.748
_cell_length_b 14.897
_cell_length_c 14.679
_cell_angle_alpha 107.387
_cell_angle_beta 112.496
_cell_angle_gamma 99.975
_space_group_name_H-M_alt 'P 1'
_space_group_name_Hall 'P 1'
loop_
    _symmetry_equiv_pos_as_xyz
    x,y,z
loop_
    _atom_site_label
    _atom_site_type_symbol
    _atom_site_fract_x
    _atom_site_fract_y
    _atom_site_fract_z
    _atom_site_occupancy
    Mc0     Mc   0.33610   0.26421   0.71219   1.000
    Mc1     Mc   0.95473   0.25771   0.71845   1.000
    Mc2     Mc   0.28745   0.59136   0.98821   1.000
    Mc3     Mc   0.30571   0.25707   0.05785   1.000
    Mc4     Mc   0.69507   0.74261   0.94206   1.000
    Mc5     Mc   0.71357   0.40842   0.01184   1.000
    Mc6     Mc   0.66489   0.73544   0.28776   1.000
    Mc7     Mc   0.04604   0.74227   0.28156   1.000
