# CIF file generated by openbabel 2.4.90, see http://openbabel.sf.net
data_I
_chemical_name_common ''
_cell_length_a 13.748
_cell_length_b 14.897
_cell_length_c 14.679
_cell_angle_alpha 107.387
_cell_angle_beta 112.496
_cell_angle_gamma 99.975
_space_group_name_H-M_alt 'P 1'
_space_group_name_Hall 'P 1'
loop_
    _symmetry_equiv_pos_as_xyz
    x,y,z
loop_
    _atom_site_label
    _atom_site_type_symbol
    _atom_site_fract_x
    _atom_site_fract_y
    _atom_site_fract_z
    _atom_site_occupancy
    N0      N    0.22714   0.34858   0.87212   1.000
    N1      N    0.77386   0.65118   0.12789   1.000
    Zr2     Zr   0.50048   0.99989   0.49998   1.000
    O3      O    0.59785   0.16519   0.73501   1.000
    O4      O    0.41696   0.11211   0.30752   1.000
    O5      O    0.40313   0.83459   0.26500   1.000
    O6      O    0.58388   0.88760   0.69241   1.000
    O7      O    0.55798   0.11542   0.58104   1.000
    O8      O    0.44298   0.88438   0.41894   1.000
loop_
    _geom_bond_atom_site_label_1
    _geom_bond_atom_site_label_2
    _geom_bond_distance
    _geom_bond_site_symmetry_2
    _ccdc_geom_bond_type
    Zr2    O3        3.16306  1_565   S
    N1     O3        7.05891  1_554   S
    Zr2    O4        3.61945  1_565   S
    N0     O4        7.99651  1_556   S
    Zr2    O5        3.16257      .   S
    N0     O5        7.05913  1_556   S
    Zr2    O6        3.61955      .   S
    N1     O6        7.99713  1_554   S
    Zr2    O7        1.60864  1_565   S
    N0     O7        7.90462      .   S
    Zr2    O8        1.60826      .   S
    N1     O8        7.90506      .   S
