# CIF file generated by openbabel 2.4.90, see http://openbabel.sf.net
data_I
_chemical_name_common ''
_cell_length_a 13.748
_cell_length_b 14.897
_cell_length_c 14.679
_cell_angle_alpha 107.387
_cell_angle_beta 112.496
_cell_angle_gamma 99.975
_space_group_name_H-M_alt 'P 1'
_space_group_name_Hall 'P 1'
loop_
    _symmetry_equiv_pos_as_xyz
    x,y,z
loop_
    _atom_site_label
    _atom_site_type_symbol
    _atom_site_fract_x
    _atom_site_fract_y
    _atom_site_fract_z
    _atom_site_occupancy
    C0      C    0.48169   0.81735   0.57253   1.000
    C1      C    0.63164   0.03082   0.78657   1.000
    C2      C    0.51915   0.18235   0.42730   1.000
    C3      C    0.36899   0.96894   0.21347   1.000
    C4      C    0.50093   0.99998   0.50011   1.000
    C5      C    0.77386   0.65118   0.12789   1.000
    C6      C    0.22714   0.34858   0.87212   1.000
    C7      C    0.12506   0.74541   0.46608   1.000
    C8      C    0.92044   0.68780   0.35338   1.000
    C9      C    0.96944   0.73567   0.09563   1.000
    C10     C    0.17285   0.80034   0.21223   1.000
    C11     C    0.53808   0.63893   0.75900   1.000
    C12     C    0.60149   0.56437   0.89285   1.000
    C13     C    0.85311   0.84746   0.12386   1.000
    C14     C    0.78830   0.92019   0.98959   1.000
    C15     C    0.52550   0.29085   0.94550   1.000
    C16     C    0.56729   0.47194   0.04029   1.000
    C17     C    0.90254   0.52461   0.07874   1.000
    C18     C    0.85854   0.34341   0.98239   1.000
    C19     C    0.60388   0.63789   0.37840   1.000
    C20     C    0.67391   0.56369   0.25071   1.000
    C21     C    0.72241   0.83393   0.19648   1.000
    C22     C    0.65712   0.90699   0.32634   1.000
    C23     C    0.44880   0.98500   0.63747   1.000
    C24     C    0.87600   0.25481   0.53403   1.000
    C25     C    0.08061   0.31228   0.64672   1.000
    C26     C    0.03149   0.26409   0.90429   1.000
    C27     C    0.82808   0.19954   0.78767   1.000
    C28     C    0.46267   0.36068   0.24069   1.000
    C29     C    0.39937   0.43531   0.10718   1.000
    C30     C    0.14770   0.15228   0.87605   1.000
    C31     C    0.21236   0.07950   0.01030   1.000
    C32     C    0.47550   0.70896   0.05457   1.000
    C33     C    0.43375   0.52789   0.95970   1.000
    C34     C    0.09851   0.47514   0.92132   1.000
    C35     C    0.14245   0.65631   0.01769   1.000
    C36     C    0.39707   0.36170   0.62154   1.000
    C37     C    0.32704   0.43594   0.74921   1.000
    C38     C    0.27860   0.16576   0.80358   1.000
    C39     C    0.34394   0.09269   0.67379   1.000
    C40     C    0.55227   0.01493   0.36205   1.000
    C41     C    0.28522   0.81496   0.41647   1.000
    C42     C    0.16181   0.77762   0.34683   1.000
    C43     C    0.08988   0.74426   0.38529   1.000
    C44     C    0.97502   0.71101   0.32092   1.000
    C45     C    0.92873   0.70659   0.21529   1.000
    C46     C    0.00000   0.73866   0.17735   1.000
    C47     C    0.11720   0.77538   0.24263   1.000
    C48     C    0.62036   0.83163   0.78874   1.000
    C49     C    0.65866   0.78442   0.86650   1.000
    C50     C    0.60664   0.68392   0.83966   1.000
    C51     C    0.64259   0.64284   0.91545   1.000
    C52     C    0.73081   0.70059   0.01966   1.000
    C53     C    0.78319   0.80091   0.04453   1.000
    C54     C    0.74781   0.84247   0.96953   1.000
    C55     C    0.66419   0.19875   0.89834   1.000
    C56     C    0.68952   0.30637   0.95816   1.000
    C57     C    0.60770   0.34284   0.97500   1.000
    C58     C    0.63195   0.44485   0.02795   1.000
    C59     C    0.73775   0.51249   0.06539   1.000
    C60     C    0.81929   0.47416   0.04916   1.000
    C61     C    0.79566   0.37265   0.99582   1.000
    C62     C    0.58797   0.82542   0.43989   1.000
    C63     C    0.62703   0.77761   0.36139   1.000
    C64     C    0.63082   0.68022   0.33837   1.000
    C65     C    0.66998   0.63902   0.26614   1.000
    C66     C    0.70505   0.69331   0.21418   1.000
    C67     C    0.69809   0.79001   0.23640   1.000
    C68     C    0.66060   0.83173   0.30917   1.000
    C69     C    0.71581   0.18505   0.58351   1.000
    C70     C    0.83919   0.22245   0.65318   1.000
    C71     C    0.91115   0.25588   0.61478   1.000
    C72     C    0.02601   0.28903   0.67914   1.000
    C73     C    0.07226   0.29330   0.78471   1.000
    C74     C    0.99876   0.26120   0.82261   1.000
    C75     C    0.88376   0.22456   0.75733   1.000
    C76     C    0.38030   0.16800   0.21117   1.000
    C77     C    0.34205   0.21522   0.13336   1.000
    C78     C    0.39412   0.31572   0.16031   1.000
    C79     C    0.35824   0.35684   0.08454   1.000
    C80     C    0.27004   0.29912   0.98031   1.000
    C81     C    0.21761   0.19880   0.95540   1.000
    C82     C    0.25291   0.15722   0.03039   1.000
    C83     C    0.33676   0.80103   0.10174   1.000
    C84     C    0.31148   0.69341   0.04192   1.000
    C85     C    0.39331   0.65696   0.02498   1.000
    C86     C    0.36908   0.55495   0.97211   1.000
    C87     C    0.26329   0.48728   0.93465   1.000
    C88     C    0.18175   0.52560   0.95091   1.000
    C89     C    0.20535   0.62711   0.00425   1.000
    C90     C    0.41312   0.17423   0.56017   1.000
    C91     C    0.37399   0.22202   0.63864   1.000
    C92     C    0.37015   0.31939   0.66160   1.000
    C93     C    0.33098   0.36062   0.73382   1.000
    C94     C    0.29592   0.30637   0.78581   1.000
    C95     C    0.30291   0.20967   0.76300   1.000
    C96     C    0.34043   0.16793   0.69090   1.000
    C97     C    0.32025   0.78190   0.49112   1.000
    C98     C    0.34656   0.87457   0.39918   1.000
    C99     C    0.67500   0.92392   0.82228   1.000
    C100    C    0.53765   0.77868   0.69621   1.000
    C101    C    0.73944   0.16885   0.87751   1.000
    C102    C    0.56989   0.13524   0.86487   1.000
    C103    C    0.55315   0.77232   0.48284   1.000
    C104    C    0.59322   0.91567   0.45970   1.000
    C105    C    0.51461   0.96876   0.63690   1.000
    C106    C    0.68068   0.21801   0.50880   1.000
    C107    C    0.65454   0.12543   0.60086   1.000
    C108    C    0.32550   0.07577   0.17773   1.000
    C109    C    0.46319   0.22087   0.30360   1.000
    C110    C    0.26144   0.83088   0.12249   1.000
    C111    C    0.43104   0.86457   0.13526   1.000
    C112    C    0.44769   0.22730   0.51705   1.000
    C113    C    0.40819   0.08407   0.54050   1.000
    C114    C    0.48652   0.03102   0.36301   1.000
    O115    O    0.17390   0.64171   0.01097   1.000
    O116    O    0.25841   0.66026   0.02308   1.000
    O117    O    0.19355   0.57635   0.97758   1.000
    O118    O    0.23264   0.11836   0.02035   1.000
    O119    O    0.75700   0.75075   0.03209   1.000
    O120    O    0.75234   0.67589   0.07377   1.000
    O121    O    0.68670   0.67172   0.96755   1.000
    O122    O    0.35239   0.67519   0.03345   1.000
    O123    O    0.43440   0.68296   0.03977   1.000
    O124    O    0.38119   0.60596   0.99854   1.000
    O125    O    0.59962   0.45840   0.03412   1.000
    O126    O    0.68485   0.47867   0.04667   1.000
    O127    O    0.61983   0.39384   0.00147   1.000
    O128    O    0.29748   0.18622   0.08188   1.000
    O129    O    0.23526   0.17801   0.99290   1.000
    O130    O    0.32412   0.74722   0.07183   1.000
    O131    O    0.81815   0.82419   0.08419   1.000
    O132    O    0.76550   0.82169   0.00703   1.000
    O133    O    0.77852   0.49332   0.05727   1.000
    O134    O    0.86091   0.49938   0.06395   1.000
    O135    O    0.80747   0.42340   0.02249   1.000
    O136    O    0.75580   0.58184   0.09664   1.000
    O137    O    0.37881   0.39608   0.09586   1.000
    O138    O    0.37618   0.33628   0.12243   1.000
    O139    O    0.31414   0.32798   0.03243   1.000
    O140    O    0.98472   0.73716   0.13649   1.000
    O141    O    0.29910   0.81595   0.11212   1.000
    O142    O    0.38390   0.83280   0.11850   1.000
    O143    O    0.31522   0.89991   0.16798   1.000
    O144    O    0.73945   0.67224   0.17104   1.000
    O145    O    0.85129   0.67889   0.17159   1.000
    O146    O    0.36808   0.26547   0.14684   1.000
    O147    O    0.36117   0.19161   0.17227   1.000
    O148    O    0.40002   0.91676   0.17436   1.000
    O149    O    0.42840   0.33820   0.20050   1.000
    O150    O    0.96437   0.72263   0.19632   1.000
    O151    O    0.05860   0.75702   0.20999   1.000
    O152    O    0.35290   0.12189   0.19445   1.000
    O153    O    0.34725   0.02236   0.19560   1.000
    O154    O    0.71025   0.81197   0.21644   1.000
    O155    O    0.42175   0.19444   0.25738   1.000
    O156    O    0.14502   0.78786   0.22743   1.000
    O157    O    0.42776   0.99998   0.28824   1.000
    O158    O    0.70157   0.74166   0.22529   1.000
    O159    O    0.68752   0.66616   0.24016   1.000
    O160    O    0.95187   0.70880   0.26810   1.000
    O161    O    0.67935   0.81087   0.27278   1.000
    O162    O    0.13951   0.77650   0.29473   1.000
    O163    O    0.67195   0.60136   0.25842   1.000
    O164    O    0.65040   0.65962   0.30225   1.000
    O165    O    0.49117   0.20161   0.36545   1.000
    O166    O    0.65886   0.86936   0.31776   1.000
    O167    O    0.64382   0.80467   0.33528   1.000
    O168    O    0.94773   0.69941   0.33715   1.000
    O169    O    0.03245   0.72763   0.35311   1.000
    O170    O    0.62893   0.72892   0.34988   1.000
    O171    O    0.61735   0.65906   0.35839   1.000
    O172    O    0.12585   0.76094   0.36606   1.000
    O173    O    0.22352   0.79629   0.38165   1.000
    O174    O    0.60750   0.80152   0.40064   1.000
    O175    O    0.51939   0.02297   0.36253   1.000
    O176    O    0.10747   0.74484   0.42568   1.000
    O177    O    0.31589   0.84477   0.40782   1.000
    O178    O    0.42374   0.93727   0.44965   1.000
    O179    O    0.30273   0.79843   0.45379   1.000
    O180    O    0.59992   0.20018   0.46805   1.000
    O181    O    0.48342   0.20483   0.47218   1.000
    O182    O    0.59060   0.87055   0.44980   1.000
    O183    O    0.57056   0.79887   0.46136   1.000
    O184    O    0.54708   0.95783   0.47991   1.000
    O185    O    0.51742   0.79483   0.52768   1.000
    O186    O    0.40097   0.79962   0.53182   1.000
    O187    O    0.45456   0.04202   0.52031   1.000
    O188    O    0.57774   0.06270   0.55049   1.000
    O189    O    0.69824   0.20153   0.54616   1.000
    O190    O    0.43041   0.20077   0.53861   1.000
    O191    O    0.89358   0.25535   0.57440   1.000
    O192    O    0.41066   0.12915   0.55034   1.000
    O193    O    0.39356   0.19812   0.59940   1.000
    O194    O    0.50967   0.79801   0.63437   1.000
    O195    O    0.68518   0.15524   0.59218   1.000
    O196    O    0.77750   0.20375   0.61834   1.000
    O197    O    0.87517   0.23916   0.63398   1.000
    O198    O    0.96858   0.27245   0.64696   1.000
    O199    O    0.38361   0.34055   0.64157   1.000
    O200    O    0.48171   0.97688   0.63719   1.000
    O201    O    0.57313   0.99979   0.71173   1.000
    O202    O    0.37207   0.27070   0.65012   1.000
    O203    O    0.35721   0.19497   0.66477   1.000
    O204    O    0.05331   0.30065   0.66293   1.000
    O205    O    0.86148   0.22350   0.70525   1.000
    O206    O    0.35057   0.34000   0.69771   1.000
    O207    O    0.34219   0.13031   0.68234   1.000
    O208    O    0.04913   0.29117   0.73192   1.000
    O209    O    0.32167   0.18880   0.72695   1.000
    O210    O    0.57900   0.80515   0.74247   1.000
    O211    O    0.32901   0.39828   0.74152   1.000
    O212    O    0.31345   0.33349   0.75981   1.000
    O213    O    0.85592   0.21205   0.77250   1.000
    O214    O    0.94126   0.24288   0.78997   1.000
    O215    O    0.57236   0.66143   0.79933   1.000
    O216    O    0.29942   0.25802   0.77440   1.000
    O217    O    0.29076   0.18772   0.78329   1.000
    O218    O    0.03551   0.27725   0.80366   1.000
    O219    O    0.14970   0.32094   0.82841   1.000
    O220    O    0.26153   0.32747   0.82897   1.000
    O221    O    0.65332   0.97736   0.80442   1.000
    O222    O    0.60077   0.08303   0.82572   1.000
    O223    O    0.68554   0.09983   0.83204   1.000
    O224    O    0.64768   0.87777   0.80551   1.000
    O225    O    0.63951   0.80803   0.82762   1.000
    O226    O    0.01513   0.26265   0.86345   1.000
    O227    O    0.63265   0.73417   0.85308   1.000
    O228    O    0.62462   0.66338   0.87755   1.000
    O229    O    0.61704   0.16700   0.88160   1.000
    O230    O    0.70323   0.81345   0.91801   1.000
    O231    O    0.24522   0.41793   0.90338   1.000
    O232    O    0.24859   0.32385   0.92622   1.000
    O233    O    0.18266   0.17554   0.91573   1.000
    O234    O    0.70182   0.18380   0.88793   1.000
    O235    O    0.62204   0.60360   0.90415   1.000
    O236    O    0.67686   0.25256   0.92825   1.000
    O237    O    0.14013   0.50037   0.93612   1.000
    O238    O    0.22252   0.50644   0.94278   1.000
    O239    O    0.31618   0.52112   0.95338   1.000
    O240    O    0.56660   0.31684   0.96025   1.000
    O241    O    0.24382   0.24896   0.96786   1.000
    O242    O    0.64861   0.32460   0.96658   1.000
    O243    O    0.74259   0.33951   0.97699   1.000
    O244    O    0.40142   0.54142   0.96591   1.000
    O245    O    0.76805   0.88133   0.97956   1.000
    O246    O    0.82710   0.35803   0.98911   1.000
    O247    O    0.49815   0.89305   0.60472   1.000
    O248    O    0.50777   0.98437   0.56851   1.000
    O249    O    0.50284   0.10669   0.39515   1.000
    O250    O    0.49373   0.01550   0.43156   1.000
loop_
    _geom_bond_atom_site_label_1
    _geom_bond_atom_site_label_2
    _geom_bond_distance
    _geom_bond_site_symmetry_2
    _ccdc_geom_bond_type
    C89    O115      0.54443      .   S
    C35    O115      0.54443      .   S
    C89    O116      0.70124      .   S
    C84    O116      0.70124      .   S
    C89    O117      0.69513  1_554   S
    C88    O117      0.69513      .   S
    C31    O118      0.54420      .   S
    C82    O118      0.54420      .   S
    C52    O119      0.70446      .   S
    C53    O119      0.70446      .   S
    C52    O120      0.94159      .   S
    C5     O120      0.94159      .   S
    C52    O121      0.70417  1_554   S
    C51    O121      0.70417      .   S
    C85    O122      0.70130      .   S
    C84    O122      0.70130      .   S
    C85    O123      0.54446      .   S
    C32    O123      0.54446      .   S
    C85    O124      0.69723  1_554   S
    C86    O124      0.69723      .   S
    C58    O125      0.54542      .   S
    C16    O125      0.54542      .   S
    C58    O126      0.70401      .   S
    C59    O126      0.70401      .   S
    C58    O127      0.69730      .   S
    C57    O127      0.69730  1_556   S
    C82    O128      0.70147      .   S
    C77    O128      0.70147      .   S
    C82    O129      0.69532  1_554   S
    C81    O129      0.69532      .   S
    C84    O130      0.74062      .   S
    C83    O130      0.74062      .   S
    C53    O131      0.54562      .   S
    C13    O131      0.54562      .   S
    C53    O132      0.69530      .   S
    C54    O132      0.69530  1_556   S
    C60    O133      0.70436      .   S
    C59    O133      0.70436      .   S
    C60    O134      0.54541      .   S
    C17    O134      0.54541      .   S
    C60    O135      0.69513      .   S
    C61    O135      0.69513  1_556   S
    C59    O136      0.93809      .   S
    C5     O136      0.93809      .   S
    C79    O137      0.54585      .   S
    C29    O137      0.54585      .   S
    C79    O138      0.69777      .   S
    C78    O138      0.69777      .   S
    C79    O139      0.70417      .   S
    C80    O139      0.70417  1_556   S
    C9     O140      0.54621      .   S
    C46    O140      0.54621  1_455   S
    C83    O141      0.64858      .   S
    C110   O141      0.64858      .   S
    C83    O142      0.63771      .   S
    C111   O142      0.63771      .   S
    C110   O143      0.99923      .   S
    C3     O143      0.99923      .   S
    C5     O144      0.94079      .   S
    C66    O144      0.94079      .   S
    C5     O145      0.93925      .   S
    C45    O145      0.93925      .   S
    C77    O146      0.70150      .   S
    C78    O146      0.70150      .   S
    C77    O147      0.74580      .   S
    C76    O147      0.74580      .   S
    C111   O148      1.07298      .   S
    C3     O148      1.07298      .   S
    C78    O149      0.54476      .   S
    C28    O149      0.54476      .   S
    C46    O150      0.69151  1_455   S
    C45    O150      0.69151      .   S
    C46    O151      0.70949      .   S
    C47    O151      0.70949      .   S
    C108   O152      0.64254      .   S
    C76    O152      0.64254      .   S
    C108   O153      0.96878      .   S
    C3     O153      0.96878  1_565   S
    C21    O154      0.54467      .   S
    C67    O154      0.54467      .   S
    C76    O155      0.63779      .   S
    C109   O155      0.63779      .   S
    C10    O156      0.54416      .   S
    C47    O156      0.54416      .   S
    C3     O157      0.97972      .   S
    C114   O157      0.97972  1_545   S
    C66    O158      0.70385      .   S
    C67    O158      0.70385      .   S
    C66    O159      0.70413      .   S
    C65    O159      0.70413      .   S
    C45    O160      0.70408      .   S
    C44    O160      0.70408      .   S
    C67    O161      0.69434      .   S
    C68    O161      0.69434      .   S
    C47    O162      0.70025      .   S
    C42    O162      0.70025      .   S
    C20    O163      0.54587      .   S
    C65    O163      0.54587      .   S
    C65    O164      0.69877      .   S
    C64    O164      0.69877      .   S
    C109   O165      0.99057      .   S
    C2     O165      0.99057      .   S
    C68    O166      0.54349      .   S
    C22    O166      0.54349      .   S
    C68    O167      0.70032      .   S
    C63    O167      0.70032      .   S
    C44    O168      0.54581      .   S
    C8     O168      0.54581      .   S
    C44    O169      0.69629  1_655   S
    C43    O169      0.69629      .   S
    C64    O170      0.70151      .   S
    C63    O170      0.70151      .   S
    C64    O171      0.54482      .   S
    C19    O171      0.54482      .   S
    C42    O172      0.70151      .   S
    C43    O172      0.70151      .   S
    C42    O173      0.74814      .   S
    C41    O173      0.74814      .   S
    C63    O174      0.74816      .   S
    C62    O174      0.74816      .   S
    C40    O175      0.48925      .   S
    C114   O175      0.48925      .   S
    C43    O176      0.54465      .   S
    C7     O176      0.54465      .   S
    C98    O177      0.63303      .   S
    C41    O177      0.63303      .   S
    C98    O178      1.09038      .   S
    C4     O178      1.09038      .   S
    C41    O179      0.64735      .   S
    C97    O179      0.64735      .   S
    C2     O180      0.97768      .   S
    C106   O180      0.97768      .   S
    C2     O181      0.97982      .   S
    C112   O181      0.97982      .   S
    C62    O182      0.63521      .   S
    C104   O182      0.63521      .   S
    C62    O183      0.64235      .   S
    C103   O183      0.64235      .   S
    C104   O184      1.02735      .   S
    C4     O184      1.02735      .   S
    C103   O185      0.97961      .   S
    C0     O185      0.97961      .   S
    C97    O186      0.97729      .   S
    C0     O186      0.97729      .   S
    C4     O187      1.02885  1_565   S
    C113   O187      1.02885      .   S
    C4     O188      1.08749  1_565   S
    C107   O188      1.08749      .   S
    C106   O189      0.64725      .   S
    C69    O189      0.64725      .   S
    C112   O190      0.64243      .   S
    C90    O190      0.64243      .   S
    C24    O191      0.54465      .   S
    C71    O191      0.54465      .   S
    C113   O192      0.63513      .   S
    C90    O192      0.63513      .   S
    C90    O193      0.74827      .   S
    C91    O193      0.74827      .   S
    C0     O194      0.99116      .   S
    C100   O194      0.99116      .   S
    C69    O195      0.63312      .   S
    C107   O195      0.63312      .   S
    C69    O196      0.74805      .   S
    C70    O196      0.74805      .   S
    C71    O197      0.70147      .   S
    C70    O197      0.70147      .   S
    C71    O198      0.69628      .   S
    C72    O198      0.69628  1_455   S
    C36    O199      0.54482      .   S
    C92    O199      0.54482      .   S
    C105   O200      0.48929      .   S
    C23    O200      0.48929      .   S
    C105   O201      0.97927      .   S
    C1     O201      0.97927  1_545   S
    C91    O202      0.70153      .   S
    C92    O202      0.70153      .   S
    C91    O203      0.70035      .   S
    C96    O203      0.70035      .   S
    C25    O204      0.54584      .   S
    C72    O204      0.54584      .   S
    C70    O205      0.70026      .   S
    C75    O205      0.70026      .   S
    C92    O206      0.69880      .   S
    C93    O206      0.69880      .   S
    C39    O207      0.54350      .   S
    C96    O207      0.54350      .   S
    C72    O208      0.70406      .   S
    C73    O208      0.70406      .   S
    C96    O209      0.69073      .   S
    C95    O209      0.69073      .   S
    C100   O210      0.63780      .   S
    C48    O210      0.63780      .   S
    C93    O211      0.54587      .   S
    C37    O211      0.54587      .   S
    C93    O212      0.70408      .   S
    C94    O212      0.70408      .   S
    C75    O213      0.54417      .   S
    C27    O213      0.54417      .   S
    C75    O214      0.69730      .   S
    C74    O214      0.69730      .   S
    C11    O215      0.54599      .   S
    C50    O215      0.54599      .   S
    C95    O216      0.70366      .   S
    C94    O216      0.70366      .   S
    C95    O217      0.54863      .   S
    C38    O217      0.54863      .   S
    C73    O218      0.70371      .   S
    C74    O218      0.70371  1_655   S
    C73    O219      0.93927      .   S
    C6     O219      0.93927      .   S
    C94    O220      0.94094      .   S
    C6     O220      0.94094      .   S
    C1     O221      0.96886  1_545   S
    C99    O221      0.96886      .   S
    C1     O222      1.07204      .   S
    C102   O222      1.07204      .   S
    C1     O223      0.99955      .   S
    C101   O223      0.99955      .   S
    C48    O224      0.64250      .   S
    C99    O224      0.64250      .   S
    C48    O225      0.74546      .   S
    C49    O225      0.74546      .   S
    C74    O226      0.54577  1_655   S
    C26    O226      0.54577      .   S
    C50    O227      0.70162      .   S
    C49    O227      0.70162      .   S
    C50    O228      0.69777      .   S
    C51    O228      0.69777      .   S
    C102   O229      0.63781      .   S
    C55    O229      0.63781      .   S
    C49    O230      0.70177      .   S
    C54    O230      0.70177      .   S
    C6     O231      0.93816      .   S
    C87    O231      0.93816      .   S
    C6     O232      0.94154      .   S
    C80    O232      0.94154      .   S
    C30    O233      0.54563      .   S
    C81    O233      0.54563      .   S
    C101   O234      0.64851      .   S
    C55    O234      0.64851      .   S
    C12    O235      0.54586      .   S
    C51    O235      0.54586      .   S
    C55    O236      0.74056      .   S
    C56    O236      0.74056      .   S
    C34    O237      0.54541      .   S
    C88    O237      0.54541      .   S
    C87    O238      0.70438      .   S
    C88    O238      0.70438      .   S
    C87    O239      0.70402      .   S
    C86    O239      0.70402      .   S
    C15    O240      0.54460      .   S
    C57    O240      0.54460      .   S
    C81    O241      0.70448      .   S
    C80    O241      0.70448      .   S
    C56    O242      0.70105      .   S
    C57    O242      0.70105      .   S
    C56    O243      0.70124      .   S
    C61    O243      0.70124      .   S
    C33    O244      0.54558      .   S
    C86    O244      0.54558      .   S
    C54    O245      0.54420      .   S
    C14    O245      0.54420      .   S
    C18    O246      0.54441      .   S
    C61    O246      0.54441      .   S
    C105   O247      1.02842      .   S
    C0     O247      1.02842      .   S
    C105   O248      1.07039      .   S
    C4     O248      1.07039      .   S
    C114   O249      1.02816      .   S
    C2     O249      1.02816      .   S
    C114   O250      1.07075      .   S
    C4     O250      1.07075  1_565   S
