# CIF file generated by openbabel 2.4.90, see http://openbabel.sf.net
data_I
_chemical_name_common ''
_cell_length_a 8.651
_cell_length_b 15.345
_cell_length_c 17.421
_cell_angle_alpha 90
_cell_angle_beta 90
_cell_angle_gamma 90.001
_space_group_name_H-M_alt 'P 1'
_space_group_name_Hall 'P 1'
loop_
    _symmetry_equiv_pos_as_xyz
    x,y,z
loop_
    _atom_site_label
    _atom_site_type_symbol
    _atom_site_fract_x
    _atom_site_fract_y
    _atom_site_fract_z
    _atom_site_occupancy
    N0      N    0.25759   0.05637   0.56186   1.000
    N1      N    0.24242   0.55636   0.43812   1.000
    N2      N    0.74242   0.94366   0.06164   1.000
    N3      N    0.75759   0.44366   0.93811   1.000
    N4      N    0.74242   0.94366   0.43812   1.000
    N5      N    0.75759   0.44366   0.56186   1.000
    N6      N    0.25758   0.05637   0.93811   1.000
    N7      N    0.24242   0.55636   0.06164   1.000
    N8      N    0.45373   0.21093   0.25000   1.000
    N9      N    0.04626   0.71092   0.74998   1.000
    N10     N    0.54627   0.78909   0.74998   1.000
    N11     N    0.95374   0.28910   0.25000   1.000
    Zr12    Zr   0.35579   0.73524   0.61108   1.000
    O13     O    0.24735   0.72341   0.65493   1.000
    O14     O    0.47284   0.64382   0.59985   1.000
    O15     O    0.31611   0.83278   0.60328   1.000
    Zr16    Zr   0.14421   0.23526   0.11109   1.000
    O17     O    0.25265   0.22343   0.15495   1.000
    O18     O    0.18389   0.33279   0.10323   1.000
    O19     O    0.02716   0.14384   0.09980   1.000
    Zr20    Zr   0.85579   0.76476   0.88889   1.000
    O21     O    0.74735   0.77660   0.84503   1.000
    O22     O    0.97284   0.85618   0.90012   1.000
    O23     O    0.81611   0.66723   0.89669   1.000
    Zr24    Zr   0.64421   0.26478   0.38890   1.000
    O25     O    0.75265   0.27661   0.34504   1.000
    O26     O    0.52717   0.35620   0.40013   1.000
    O27     O    0.68389   0.16724   0.39670   1.000
    Zr28    Zr   0.14420   0.23526   0.38890   1.000
    O29     O    0.25265   0.22343   0.34505   1.000
    O30     O    0.18389   0.33280   0.39670   1.000
    O31     O    0.02716   0.14384   0.40013   1.000
    Zr32    Zr   0.85580   0.76476   0.61108   1.000
    O33     O    0.74736   0.77660   0.65493   1.000
    O34     O    0.81612   0.66723   0.60328   1.000
    O35     O    0.97284   0.85618   0.59985   1.000
    Zr36    Zr   0.64421   0.26478   0.11109   1.000
    O37     O    0.75265   0.27661   0.15495   1.000
    O38     O    0.52717   0.35620   0.09980   1.000
    O39     O    0.68389   0.16724   0.10323   1.000
    Zr40    Zr   0.35579   0.73524   0.88889   1.000
    O41     O    0.31611   0.83278   0.89669   1.000
    O42     O    0.24735   0.72341   0.84503   1.000
    O43     O    0.47283   0.64383   0.90012   1.000
    O44     O    0.42317   0.75402   0.65905   1.000
    O45     O    0.42317   0.75402   0.84092   1.000
    O46     O    0.30986   0.68476   0.55454   1.000
    O47     O    0.47179   0.79553   0.55581   1.000
    O48     O    0.07683   0.25404   0.15906   1.000
    O49     O    0.07683   0.25404   0.34093   1.000
    O50     O    0.92317   0.74599   0.65905   1.000
    O51     O    0.92317   0.74599   0.84092   1.000
    O52     O    0.97180   0.70448   0.55581   1.000
    O53     O    0.80986   0.81525   0.55454   1.000
    O54     O    0.57683   0.24600   0.34093   1.000
    O55     O    0.57683   0.24600   0.15906   1.000
    O56     O    0.80986   0.81525   0.94538   1.000
    O57     O    0.97180   0.70448   0.94411   1.000
    O58     O    0.69015   0.31526   0.44545   1.000
    O59     O    0.52821   0.20450   0.44417   1.000
    O60     O    0.02820   0.29554   0.44417   1.000
    O61     O    0.02821   0.29554   0.05582   1.000
    O62     O    0.19014   0.18478   0.05454   1.000
    O63     O    0.69015   0.31526   0.05454   1.000
    O64     O    0.52821   0.20449   0.05582   1.000
    O65     O    0.47179   0.79553   0.94411   1.000
    O66     O    0.30985   0.68476   0.94538   1.000
    O67     O    0.19014   0.18478   0.44544   1.000
loop_
    _geom_bond_atom_site_label_1
    _geom_bond_atom_site_label_2
    _geom_bond_distance
    _geom_bond_site_symmetry_2
    _ccdc_geom_bond_type
    Zr12   O13       1.22344      .   S
    N9     O13       2.40931      .   S
    Zr12   O14       1.74108      .   S
    N5     O14       3.99265      .   S
    Zr12   O15       1.54162      .   S
    N0     O15       3.54238  1_545   S
    Zr16   O17       1.22344      .   S
    N8     O17       2.40929      .   S
    Zr16   O18       1.54162      .   S
    N7     O18       3.54273      .   S
    Zr16   O19       1.74118      .   S
    N2     O19       3.99322  1_665   S
    Zr20   O21       1.22344      .   S
    N10    O21       2.40928      .   S
    Zr20   O22       1.74107      .   S
    N6     O22       3.99274  1_445   S
    Zr20   O23       1.54153      .   S
    N3     O23       3.54213      .   S
    Zr24   O25       1.22343      .   S
    N11    O25       2.40929      .   S
    Zr24   O26       1.74107      .   S
    N1     O26       3.99263      .   S
    Zr24   O27       1.54162      .   S
    N4     O27       3.54236  1_565   S
    Zr28   O29       1.22344      .   S
    N8     O29       2.40930      .   S
    Zr28   O30       1.54152      .   S
    N1     O30       3.54210      .   S
    Zr28   O31       1.74108      .   S
    N4     O31       3.99275  1_665   S
    Zr32   O33       1.22346      .   S
    N10    O33       2.40931      .   S
    Zr32   O34       1.54153      .   S
    N5     O34       3.54213      .   S
    Zr32   O35       1.74108      .   S
    N0     O35       3.99274  1_445   S
    Zr36   O37       1.22342      .   S
    N11    O37       2.40927      .   S
    Zr36   O38       1.74119      .   S
    N7     O38       3.99314      .   S
    Zr36   O39       1.54170      .   S
    N2     O39       3.54296  1_565   S
    Zr40   O41       1.54161      .   S
    N6     O41       3.54235  1_545   S
    Zr40   O42       1.22342      .   S
    N9     O42       2.40929      .   S
    Zr40   O43       1.74108      .   S
    N3     O43       3.99266      .   S
    N10    O44       1.98323      .   S
    Zr12   O44       1.05888      .   S
    N10    O45       1.98323      .   S
    Zr40   O45       1.05888      .   S
    Zr12   O46       1.31460      .   S
    N1     O46       2.88704      .   S
    Zr12   O47       1.67029      .   S
    N4     O47       3.85370      .   S
    N11    O48       1.98320  1_655   S
    Zr16   O48       1.05887      .   S
    N11    O49       1.98319  1_655   S
    Zr28   O49       1.05886      .   S
    N9     O50       1.98318  1_455   S
    Zr32   O50       1.05886      .   S
    N9     O51       1.98319  1_455   S
    Zr20   O51       1.05886      .   S
    N1     O52       3.85359  1_455   S
    Zr32   O52       1.67024      .   S
    Zr32   O53       1.31467      .   S
    N4     O53       2.88720      .   S
    N8     O54       1.98323      .   S
    Zr24   O54       1.05888      .   S
    N8     O55       1.98325      .   S
    Zr36   O55       1.05889      .   S
    Zr20   O56       1.31404      .   S
    N2     O56       2.88534  1_554   S
    Zr20   O57       1.66977      .   S
    N7     O57       3.85221  1_454   S
    Zr24   O58       1.31462      .   S
    N5     O58       2.88708      .   S
    Zr24   O59       1.67029      .   S
    N0     O59       3.85370      .   S
    N5     O60       3.85359  1_655   S
    Zr28   O60       1.67024      .   S
    Zr16   O61       1.67032      .   S
    N3     O61       3.85375  1_656   S
    Zr16   O62       1.31476      .   S
    N6     O62       2.88737  1_556   S
    Zr36   O63       1.31470      .   S
    N3     O63       2.88723  1_556   S
    Zr36   O64       1.67037      .   S
    N6     O64       3.85385  1_556   S
    N2     O65       3.85231  1_554   S
    Zr40   O65       1.66981      .   S
    Zr40   O66       1.31397      .   S
    N7     O66       2.88518  1_554   S
    N0     O67       2.88723      .   S
    Zr28   O67       1.31469      .   S
