# CIF file generated by openbabel 2.4.90, see http://openbabel.sf.net
data_I
_chemical_name_common ''
_cell_length_a 8.651
_cell_length_b 15.345
_cell_length_c 17.421
_cell_angle_alpha 90
_cell_angle_beta 90
_cell_angle_gamma 90.001
_space_group_name_H-M_alt 'P 1'
_space_group_name_Hall 'P 1'
loop_
    _symmetry_equiv_pos_as_xyz
    x,y,z
loop_
    _atom_site_label
    _atom_site_type_symbol
    _atom_site_fract_x
    _atom_site_fract_y
    _atom_site_fract_z
    _atom_site_occupancy
    N0      N    0.25759   0.05637   0.56186   1.000
    N1      N    0.24242   0.55636   0.43812   1.000
    N2      N    0.74242   0.94366   0.06164   1.000
    N3      N    0.75759   0.44366   0.93811   1.000
    N4      N    0.74242   0.94366   0.43812   1.000
    N5      N    0.75759   0.44366   0.56186   1.000
    N6      N    0.25758   0.05637   0.93811   1.000
    N7      N    0.24242   0.55636   0.06164   1.000
    N8      N    0.45373   0.21093   0.25000   1.000
    N9      N    0.04626   0.71092   0.74998   1.000
    N10     N    0.54627   0.78909   0.74998   1.000
    N11     N    0.95374   0.28910   0.25000   1.000
    Zr12    Zr   0.35579   0.73524   0.61108   1.000
    O13     O    0.24735   0.72341   0.65493   1.000
    O14     O    0.43485   0.75815   0.65493   1.000
    O15     O    0.29639   0.69150   0.55807   1.000
    O16     O    0.32332   0.67803   0.55100   1.000
    O17     O    0.48389   0.79006   0.55807   1.000
    O18     O    0.47284   0.64382   0.59985   1.000
    O19     O    0.31611   0.83278   0.60328   1.000
    O20     O    0.45970   0.80100   0.55355   1.000
    O21     O    0.41149   0.74989   0.66317   1.000
    Zr22    Zr   0.14421   0.23526   0.11109   1.000
    O23     O    0.08851   0.24991   0.16318   1.000
    O24     O    0.06515   0.25816   0.15495   1.000
    O25     O    0.25265   0.22343   0.15495   1.000
    O26     O    0.18389   0.33279   0.10323   1.000
    O27     O    0.17667   0.17804   0.05101   1.000
    O28     O    0.02716   0.14384   0.09980   1.000
    O29     O    0.20361   0.19151   0.05807   1.000
    O30     O    0.04030   0.30101   0.05356   1.000
    O31     O    0.01611   0.29007   0.05807   1.000
    Zr32    Zr   0.85579   0.76476   0.88889   1.000
    O33     O    0.93485   0.74186   0.84503   1.000
    O34     O    0.95970   0.69901   0.94637   1.000
    O35     O    0.74735   0.77660   0.84503   1.000
    O36     O    0.98389   0.70995   0.94185   1.000
    O37     O    0.91149   0.75011   0.83680   1.000
    O38     O    0.82333   0.82198   0.94892   1.000
    O39     O    0.79639   0.80851   0.94185   1.000
    O40     O    0.97284   0.85618   0.90012   1.000
    O41     O    0.81611   0.66723   0.89669   1.000
    Zr42    Zr   0.64421   0.26478   0.38890   1.000
    O43     O    0.56515   0.24188   0.34505   1.000
    O44     O    0.75265   0.27661   0.34504   1.000
    O45     O    0.52717   0.35620   0.40013   1.000
    O46     O    0.58851   0.25013   0.33681   1.000
    O47     O    0.70362   0.30852   0.44191   1.000
    O48     O    0.54030   0.19903   0.44643   1.000
    O49     O    0.51611   0.20996   0.44191   1.000
    O50     O    0.67668   0.32200   0.44898   1.000
    O51     O    0.68389   0.16724   0.39670   1.000
    Zr52    Zr   0.14420   0.23526   0.38890   1.000
    O53     O    0.25265   0.22343   0.34505   1.000
    O54     O    0.06515   0.25816   0.34504   1.000
    O55     O    0.04030   0.30101   0.44643   1.000
    O56     O    0.18389   0.33280   0.39670   1.000
    O57     O    0.02716   0.14384   0.40013   1.000
    O58     O    0.08851   0.24991   0.33681   1.000
    O59     O    0.01611   0.29007   0.44191   1.000
    O60     O    0.17667   0.17804   0.44898   1.000
    O61     O    0.20361   0.19151   0.44191   1.000
    Zr62    Zr   0.85580   0.76476   0.61108   1.000
    O63     O    0.74736   0.77660   0.65493   1.000
    O64     O    0.93485   0.74186   0.65493   1.000
    O65     O    0.91149   0.75011   0.66317   1.000
    O66     O    0.79639   0.80851   0.55807   1.000
    O67     O    0.98389   0.70995   0.55807   1.000
    O68     O    0.81612   0.66723   0.60328   1.000
    O69     O    0.95970   0.69901   0.55355   1.000
    O70     O    0.82333   0.82198   0.55100   1.000
    O71     O    0.97284   0.85618   0.59985   1.000
    Zr72    Zr   0.64421   0.26478   0.11109   1.000
    O73     O    0.75265   0.27661   0.15495   1.000
    O74     O    0.56515   0.24188   0.15495   1.000
    O75     O    0.58852   0.25013   0.16318   1.000
    O76     O    0.52717   0.35620   0.09980   1.000
    O77     O    0.68389   0.16724   0.10323   1.000
    O78     O    0.67668   0.32200   0.05101   1.000
    O79     O    0.54030   0.19903   0.05356   1.000
    O80     O    0.51612   0.20996   0.05807   1.000
    O81     O    0.70362   0.30852   0.05807   1.000
    Zr82    Zr   0.35579   0.73524   0.88889   1.000
    O83     O    0.31611   0.83278   0.89669   1.000
    O84     O    0.43485   0.75815   0.84503   1.000
    O85     O    0.24735   0.72341   0.84503   1.000
    O86     O    0.47283   0.64383   0.90012   1.000
    O87     O    0.48389   0.79006   0.94185   1.000
    O88     O    0.29639   0.69150   0.94185   1.000
    O89     O    0.45970   0.80100   0.94637   1.000
    O90     O    0.41149   0.74989   0.83680   1.000
    O91     O    0.32332   0.67803   0.94892   1.000
loop_
    _geom_bond_atom_site_label_1
    _geom_bond_atom_site_label_2
    _geom_bond_distance
    _geom_bond_site_symmetry_2
    _ccdc_geom_bond_type
    Zr12   O13       1.22344      .   S
    N9     O13       2.40931      .   S
    Zr12   O14       1.08399      .   S
    N10    O14       1.97393      .   S
    Zr12   O15       1.25199      .   S
    N1     O15       2.98059      .   S
    Zr12   O16       1.39462      .   S
    N1     O16       2.80038      .   S
    Zr12   O17       1.66987      .   S
    N4     O17       3.86306      .   S
    Zr12   O18       1.74108      .   S
    N5     O18       3.99265      .   S
    Zr12   O19       1.54162      .   S
    N0     O19       3.54238  1_545   S
    Zr12   O20       1.68236      .   S
    N4     O20       3.84939      .   S
    Zr12   O21       1.05174      .   S
    N10    O21       2.00219      .   S
    Zr22   O23       1.05174      .   S
    N11    O23       2.00215  1_655   S
    Zr22   O24       1.08397      .   S
    N11    O24       1.97390  1_655   S
    Zr22   O25       1.22344      .   S
    N8     O25       2.40929      .   S
    Zr22   O26       1.54162      .   S
    N7     O26       3.54273      .   S
    Zr22   O27       1.39480      .   S
    N6     O27       2.80069  1_556   S
    Zr22   O28       1.74118      .   S
    N2     O28       3.99322  1_665   S
    Zr22   O29       1.25212      .   S
    N6     O29       2.98095  1_556   S
    Zr22   O30       1.68241      .   S
    N3     O30       3.84943  1_656   S
    Zr22   O31       1.66988      .   S
    N3     O31       3.86313  1_656   S
    Zr32   O33       1.08396      .   S
    N9     O33       1.97389  1_455   S
    Zr32   O34       1.68184      .   S
    N7     O34       3.84792  1_454   S
    Zr32   O35       1.22344      .   S
    N10    O35       2.40928      .   S
    Zr32   O36       1.66935      .   S
    N7     O36       3.86157  1_454   S
    Zr32   O37       1.05173      .   S
    N9     O37       2.00214  1_455   S
    Zr32   O38       1.39408      .   S
    N2     O38       2.79865  1_554   S
    Zr32   O39       1.25141      .   S
    N2     O39       2.97892  1_554   S
    Zr32   O40       1.74107      .   S
    N6     O40       3.99274  1_445   S
    Zr32   O41       1.54153      .   S
    N3     O41       3.54213      .   S
    Zr42   O43       1.08399      .   S
    N8     O43       1.97393      .   S
    Zr42   O44       1.22343      .   S
    N11    O44       2.40929      .   S
    Zr42   O45       1.74107      .   S
    N1     O45       3.99263      .   S
    Zr42   O46       1.05175      .   S
    N8     O46       2.00219      .   S
    Zr42   O47       1.25201      .   S
    N5     O47       2.98064      .   S
    Zr42   O48       1.68236      .   S
    N0     O48       3.84939      .   S
    Zr42   O49       1.66987      .   S
    N0     O49       3.86306      .   S
    Zr42   O50       1.39464      .   S
    N5     O50       2.80042      .   S
    Zr42   O51       1.54162      .   S
    N4     O51       3.54236  1_565   S
    Zr52   O53       1.22344      .   S
    N8     O53       2.40930      .   S
    Zr52   O54       1.08395      .   S
    N11    O54       1.97389  1_655   S
    Zr52   O55       1.68231      .   S
    N5     O55       3.84928  1_655   S
    Zr52   O56       1.54152      .   S
    N1     O56       3.54210      .   S
    Zr52   O57       1.74108      .   S
    N4     O57       3.99275  1_665   S
    Zr52   O58       1.05173      .   S
    N11    O58       2.00213  1_655   S
    Zr52   O59       1.66982      .   S
    N5     O59       3.86295  1_655   S
    Zr52   O60       1.39472      .   S
    N0     O60       2.80056      .   S
    Zr52   O61       1.25207      .   S
    N0     O61       2.98079      .   S
    Zr62   O63       1.22346      .   S
    N10    O63       2.40931      .   S
    Zr62   O64       1.08395      .   S
    N9     O64       1.97389  1_455   S
    Zr62   O65       1.05173      .   S
    N9     O65       2.00213  1_455   S
    Zr62   O66       1.25206      .   S
    N4     O66       2.98076      .   S
    Zr62   O67       1.66982      .   S
    N1     O67       3.86296  1_455   S
    Zr62   O68       1.54153      .   S
    N5     O68       3.54213      .   S
    Zr62   O69       1.68231      .   S
    N1     O69       3.84928  1_455   S
    Zr62   O70       1.39469      .   S
    N4     O70       2.80053      .   S
    Zr62   O71       1.74108      .   S
    N0     O71       3.99274  1_445   S
    Zr72   O73       1.22342      .   S
    N11    O73       2.40927      .   S
    Zr72   O74       1.08400      .   S
    N8     O74       1.97394      .   S
    Zr72   O75       1.05175      .   S
    N8     O75       2.00221      .   S
    Zr72   O76       1.74119      .   S
    N7     O76       3.99314      .   S
    Zr72   O77       1.54170      .   S
    N2     O77       3.54296  1_565   S
    Zr72   O78       1.39474      .   S
    N3     O78       2.80055  1_556   S
    Zr72   O79       1.68246      .   S
    N6     O79       3.84953  1_556   S
    Zr72   O80       1.66993      .   S
    N6     O80       3.86323  1_556   S
    Zr72   O81       1.25207      .   S
    N3     O81       2.98081  1_556   S
    Zr82   O83       1.54161      .   S
    N6     O83       3.54235  1_545   S
    Zr82   O84       1.08399      .   S
    N10    O84       1.97393      .   S
    Zr82   O85       1.22342      .   S
    N9     O85       2.40929      .   S
    Zr82   O86       1.74108      .   S
    N3     O86       3.99266      .   S
    Zr82   O87       1.66940      .   S
    N2     O87       3.86167  1_554   S
    Zr82   O88       1.25135      .   S
    N7     O88       2.97876  1_554   S
    Zr82   O89       1.68189      .   S
    N2     O89       3.84802  1_554   S
    Zr82   O90       1.05175      .   S
    N10    O90       2.00219      .   S
    Zr82   O91       1.39401      .   S
    N7     O91       2.79850  1_554   S
