# CIF file generated by openbabel 2.4.90, see http://openbabel.sf.net
data_I
_chemical_name_common ''
_cell_length_a 8.651
_cell_length_b 15.345
_cell_length_c 17.421
_cell_angle_alpha 90
_cell_angle_beta 90
_cell_angle_gamma 90.001
_space_group_name_H-M_alt 'P 1'
_space_group_name_Hall 'P 1'
loop_
    _symmetry_equiv_pos_as_xyz
    x,y,z
loop_
    _atom_site_label
    _atom_site_type_symbol
    _atom_site_fract_x
    _atom_site_fract_y
    _atom_site_fract_z
    _atom_site_occupancy
    Zr0     Zr   0.64421   0.26478   0.38890   1.000
    Zr1     Zr   0.85580   0.76476   0.61108   1.000
    Zr2     Zr   0.35579   0.73524   0.88889   1.000
    Zr3     Zr   0.14421   0.23526   0.11109   1.000
    Zr4     Zr   0.35579   0.73524   0.61108   1.000
    Zr5     Zr   0.14420   0.23526   0.38890   1.000
    Zr6     Zr   0.64421   0.26478   0.11109   1.000
    Zr7     Zr   0.85579   0.76476   0.88889   1.000
    N8      N    0.25759   0.05637   0.56186   1.000
    O9      O    0.20914   0.12082   0.50905   1.000
    O10     O    0.43640   0.13327   0.50395   1.000
    O11     O    0.26301   0.14777   0.49492   1.000
    O12     O    0.38802   0.15515   0.49492   1.000
    O13     O    0.08989   0.94760   0.58861   1.000
    O14     O    0.27643   0.93032   0.59547   1.000
    N15     N    0.24242   0.55636   0.43812   1.000
    O16     O    0.29086   0.62081   0.49093   1.000
    O17     O    0.06361   0.63326   0.49603   1.000
    O18     O    0.23698   0.64775   0.50506   1.000
    O19     O    0.11199   0.65514   0.50506   1.000
    O20     O    0.41012   0.44761   0.41137   1.000
    O21     O    0.22357   0.43033   0.40451   1.000
    N22     N    0.74242   0.94366   0.06164   1.000
    O23     O    0.79086   0.87920   0.00895   1.000
    O24     O    0.56361   0.86675   0.00384   1.000
    O25     O    0.73699   0.85226   0.99481   1.000
    O26     O    0.61199   0.84488   0.99481   1.000
    O27     O    0.91012   0.05243   0.08851   1.000
    O28     O    0.72357   0.06970   0.09537   1.000
    N29     N    0.75759   0.44366   0.93811   1.000
    O30     O    0.70915   0.37921   0.99092   1.000
    O31     O    0.93639   0.36676   0.99603   1.000
    O32     O    0.76302   0.35227   0.00506   1.000
    O33     O    0.88802   0.34489   0.00506   1.000
    O34     O    0.58988   0.55241   0.91135   1.000
    O35     O    0.77643   0.56969   0.90449   1.000
    N36     N    0.74242   0.94366   0.43812   1.000
    O37     O    0.79086   0.87920   0.49093   1.000
    O38     O    0.56361   0.86675   0.49603   1.000
    O39     O    0.73699   0.85226   0.50506   1.000
    O40     O    0.61199   0.84488   0.50506   1.000
    O41     O    0.91012   0.05243   0.41137   1.000
    O42     O    0.72357   0.06970   0.40451   1.000
    N43     N    0.75759   0.44366   0.56186   1.000
    O44     O    0.70915   0.37921   0.50905   1.000
    O45     O    0.93640   0.36676   0.50395   1.000
    O46     O    0.76302   0.35227   0.49493   1.000
    O47     O    0.88802   0.34489   0.49493   1.000
    O48     O    0.58988   0.55241   0.58862   1.000
    O49     O    0.77643   0.56969   0.59548   1.000
    N50     N    0.25758   0.05637   0.93811   1.000
    O51     O    0.20914   0.12082   0.99092   1.000
    O52     O    0.43639   0.13327   0.99603   1.000
    O53     O    0.26301   0.14776   0.00506   1.000
    O54     O    0.38802   0.15514   0.00506   1.000
    O55     O    0.08988   0.94760   0.91136   1.000
    O56     O    0.27643   0.93032   0.90449   1.000
    N57     N    0.24242   0.55636   0.06164   1.000
    O58     O    0.29086   0.62081   0.00894   1.000
    O59     O    0.06361   0.63326   0.00384   1.000
    O60     O    0.23698   0.64776   0.99481   1.000
    O61     O    0.11198   0.65514   0.99481   1.000
    O62     O    0.41012   0.44761   0.08851   1.000
    O63     O    0.22358   0.43033   0.09537   1.000
    N64     N    0.45373   0.21093   0.25000   1.000
    O65     O    0.36109   0.21159   0.30119   1.000
    O66     O    0.48609   0.21897   0.30119   1.000
    O67     O    0.36109   0.21159   0.19880   1.000
    O68     O    0.48609   0.21897   0.19880   1.000
    O69     O    0.53282   0.23548   0.21527   1.000
    O70     O    0.53282   0.23548   0.28472   1.000
    N71     N    0.04626   0.71092   0.74998   1.000
    O72     O    0.13891   0.71158   0.69879   1.000
    O73     O    0.01391   0.71896   0.69879   1.000
    O74     O    0.13890   0.71158   0.80118   1.000
    O75     O    0.01391   0.71896   0.80118   1.000
    O76     O    0.96718   0.73547   0.78471   1.000
    O77     O    0.96719   0.73547   0.71526   1.000
    N78     N    0.54627   0.78909   0.74998   1.000
    O79     O    0.63891   0.78843   0.80118   1.000
    O80     O    0.51391   0.78105   0.80118   1.000
    O81     O    0.63891   0.78843   0.69879   1.000
    O82     O    0.51391   0.78105   0.69879   1.000
    O83     O    0.46718   0.76454   0.71526   1.000
    O84     O    0.46718   0.76454   0.78471   1.000
    N85     N    0.95374   0.28910   0.25000   1.000
    O86     O    0.86110   0.28845   0.19880   1.000
    O87     O    0.98609   0.28107   0.19880   1.000
    O88     O    0.86109   0.28845   0.30119   1.000
    O89     O    0.98609   0.28107   0.30119   1.000
    O90     O    0.03282   0.26456   0.21527   1.000
    O91     O    0.03281   0.26456   0.28472   1.000
loop_
    _geom_bond_atom_site_label_1
    _geom_bond_atom_site_label_2
    _geom_bond_distance
    _geom_bond_site_symmetry_2
    _ccdc_geom_bond_type
    N8     O9        1.41424      .   S
    Zr5    O9        2.78944      .   S
    N8     O10       2.19161      .   S
    Zr0    O10       3.36472      .   S
    N8     O11       1.82453      .   S
    Zr5    O11       2.50414      .   S
    N8     O12       2.22042      .   S
    Zr0    O12       3.33974      .   S
    N8     O13       2.26001  1_545   S
    Zr1    O13       3.48217  1_655   S
    N8     O14       2.02748  1_545   S
    Zr4    O14       3.08324      .   S
    N15    O16       1.41415      .   S
    Zr4    O16       2.78923      .   S
    N15    O17       2.19156      .   S
    Zr1    O17       3.36463  1_655   S
    N15    O18       1.82442      .   S
    Zr4    O18       2.50398      .   S
    N15    O19       2.22037      .   S
    Zr1    O19       3.33964  1_655   S
    N15    O20       2.25992      .   S
    Zr0    O20       3.48214      .   S
    N15    O21       2.02731      .   S
    Zr5    O21       3.08304      .   S
    N22    O23       1.41302      .   S
    Zr7    O23       2.78816  1_556   S
    N22    O24       2.19077      .   S
    Zr2    O24       3.36377  1_556   S
    N22    O25       1.82340  1_554   S
    Zr7    O25       2.50281      .   S
    N22    O26       2.21952  1_554   S
    Zr2    O26       3.33880      .   S
    N22    O27       2.26043  1_565   S
    Zr3    O27       3.48236  1_455   S
    N22    O28       2.02803  1_565   S
    Zr6    O28       3.08340      .   S
    N29    O30       1.41421      .   S
    Zr6    O30       2.78948  1_554   S
    N29    O31       2.19160      .   S
    Zr3    O31       3.36483  1_454   S
    N29    O32       1.82455  1_556   S
    Zr6    O32       2.50414      .   S
    N29    O33       2.22048  1_556   S
    Zr3    O33       3.33977  1_455   S
    N29    O34       2.25994      .   S
    Zr2    O34       3.48216      .   S
    N29    O35       2.02733      .   S
    Zr7    O35       3.08305      .   S
    N36    O37       1.41423      .   S
    Zr1    O37       2.78939      .   S
    N36    O38       2.19161      .   S
    Zr4    O38       3.36473      .   S
    N36    O39       1.82451      .   S
    Zr1    O39       2.50411      .   S
    N36    O40       2.22043      .   S
    Zr4    O40       3.33974      .   S
    N36    O41       2.26002  1_565   S
    Zr5    O41       3.48216  1_455   S
    N36    O42       2.02747  1_565   S
    Zr0    O42       3.08323      .   S
    N43    O44       1.41416      .   S
    Zr0    O44       2.78929      .   S
    N43    O45       2.19155      .   S
    Zr5    O45       3.36462  1_455   S
    N43    O46       1.82444      .   S
    Zr0    O46       2.50402      .   S
    N43    O47       2.22036      .   S
    Zr5    O47       3.33963  1_455   S
    N43    O48       2.25992      .   S
    Zr4    O48       3.48217      .   S
    N43    O49       2.02733      .   S
    Zr1    O49       3.08307      .   S
    N50    O51       1.41428      .   S
    Zr3    O51       2.78961  1_554   S
    N50    O52       2.19165      .   S
    Zr6    O52       3.36492  1_554   S
    N50    O53       1.82463  1_556   S
    Zr3    O53       2.50424      .   S
    N50    O54       2.22053  1_556   S
    Zr6    O54       3.33986      .   S
    N50    O55       2.26002  1_545   S
    Zr7    O55       3.48214  1_655   S
    N50    O56       2.02747  1_545   S
    Zr2    O56       3.08321      .   S
    N57    O58       1.41294      .   S
    Zr2    O58       2.78801  1_556   S
    N57    O59       2.19071      .   S
    Zr7    O59       3.36368  1_656   S
    N57    O60       1.82331  1_554   S
    Zr2    O60       2.50270      .   S
    N57    O61       2.21946  1_554   S
    Zr7    O61       3.33870  1_655   S
    N57    O62       2.26034      .   S
    Zr6    O62       3.48237      .   S
    N57    O63       2.02789      .   S
    Zr3    O63       3.08324      .   S
    N64    O65       1.19907      .   S
    Zr5    O65       2.44689      .   S
    N64    O66       0.94285      .   S
    Zr0    O66       2.16798      .   S
    N64    O67       1.19907      .   S
    Zr3    O67       2.44687      .   S
    N64    O68       0.94285      .   S
    Zr6    O68       2.16800      .   S
    N64    O69       0.98792      .   S
    Zr6    O69       2.10350      .   S
    N64    O70       0.98791      .   S
    Zr0    O70       2.10350      .   S
    N71    O72       1.19909      .   S
    Zr4    O72       2.44688      .   S
    N71    O73       0.94284      .   S
    Zr1    O73       2.16791  1_655   S
    N71    O74       1.19907      .   S
    Zr2    O74       2.44685      .   S
    N71    O75       0.94284      .   S
    Zr7    O75       2.16792  1_655   S
    N71    O76       0.98787  1_455   S
    Zr7    O76       2.10346      .   S
    N71    O77       0.98787  1_455   S
    Zr1    O77       2.10346      .   S
    N78    O79       1.19906      .   S
    Zr7    O79       2.44688      .   S
    N78    O80       0.94285      .   S
    Zr2    O80       2.16797      .   S
    N78    O81       1.19907      .   S
    Zr1    O81       2.44691      .   S
    N78    O82       0.94285      .   S
    Zr4    O82       2.16797      .   S
    N78    O83       0.98791      .   S
    Zr4    O83       2.10349      .   S
    N78    O84       0.98791      .   S
    Zr2    O84       2.10349      .   S
    N85    O86       1.19906      .   S
    Zr6    O86       2.44684      .   S
    N85    O87       0.94284      .   S
    Zr3    O87       2.16793  1_455   S
    N85    O88       1.19907      .   S
    Zr0    O88       2.44686      .   S
    N85    O89       0.94284      .   S
    Zr5    O89       2.16791  1_455   S
    N85    O90       0.98788  1_655   S
    Zr3    O90       2.10347      .   S
    N85    O91       0.98787  1_655   S
    Zr5    O91       2.10346      .   S
