# CIF file generated by openbabel 2.4.90, see http://openbabel.sf.net
data_I
_chemical_name_common ''
_cell_length_a 12.819
_cell_length_b 14.257
_cell_length_c 20.172
_cell_angle_alpha 89.872
_cell_angle_beta 95.078
_cell_angle_gamma 90.126
_space_group_name_H-M_alt 'P 1'
_space_group_name_Hall 'P 1'
loop_
    _symmetry_equiv_pos_as_xyz
    x,y,z
loop_
    _atom_site_label
    _atom_site_type_symbol
    _atom_site_fract_x
    _atom_site_fract_y
    _atom_site_fract_z
    _atom_site_occupancy
    H0      H    0.10207   0.64502   0.46201   1.000
    H1      H    0.60145   0.64221   0.46180   1.000
    H2      H    0.41914   0.55336   0.60894   1.000
    H3      H    0.91915   0.55304   0.60857   1.000
    H4      H    0.39696   0.14362   0.03807   1.000
    H5      H    0.89746   0.14341   0.03778   1.000
    H6      H    0.07979   0.05191   0.89106   1.000
    H7      H    0.57914   0.05179   0.89121   1.000
    H8      H    0.39576   0.35483   0.53807   1.000
    H9      H    0.89633   0.35772   0.53831   1.000
    H10     H    0.07868   0.44660   0.39118   1.000
    H11     H    0.57871   0.44705   0.39159   1.000
    H12     H    0.10221   0.85637   0.96215   1.000
    H13     H    0.60232   0.85696   0.96182   1.000
    H14     H    0.42019   0.94798   0.10899   1.000
    H15     H    0.91972   0.94828   0.10861   1.000
    O16     O    0.09881   0.62021   0.50691   1.000
    O17     O    0.59841   0.61798   0.50688   1.000
    O18     O    0.40979   0.58362   0.56542   1.000
    O19     O    0.90985   0.58379   0.56522   1.000
    O20     O    0.40037   0.11873   0.99330   1.000
    O21     O    0.90073   0.11882   0.99291   1.000
    O22     O    0.08958   0.08245   0.93430   1.000
    O23     O    0.58898   0.08266   0.93441   1.000
    O24     O    0.39911   0.37973   0.49320   1.000
    O25     O    0.89947   0.38195   0.49324   1.000
    O26     O    0.08811   0.41630   0.43469   1.000
    O27     O    0.58809   0.41623   0.43490   1.000
    O28     O    0.09888   0.88109   0.00698   1.000
    O29     O    0.59893   0.88164   0.00660   1.000
    O30     O    0.41019   0.91727   0.06574   1.000
    O31     O    0.90992   0.91753   0.06536   1.000
loop_
    _geom_bond_atom_site_label_1
    _geom_bond_atom_site_label_2
    _geom_bond_distance
    _geom_bond_site_symmetry_2
    _ccdc_geom_bond_type
    O29    H13       0.97472  1_554   S
    O28    H12       0.97578  1_554   S
    H5     O21       0.97575  1_554   S
    H4     O20       0.97566  1_554   S
    O31    H15       0.97525      .   S
    O30    H14       0.97516      .   S
    H10    O26       0.97536      .   S
    H11    O27       0.97506      .   S
    H1     O17       0.97599      .   S
    H0     O16       0.97592      .   S
    O24    H8        0.97595      .   S
    O25    H9        0.97595      .   S
    O19    H3        0.97525      .   S
    O18    H2        0.97522      .   S
    H6     O22       0.97379      .   S
    H7     O23       0.97519      .   S
