# CIF file generated by openbabel 2.4.90, see http://openbabel.sf.net
data_I
_chemical_name_common ''
_cell_length_a 12.819
_cell_length_b 14.257
_cell_length_c 20.172
_cell_angle_alpha 89.872
_cell_angle_beta 95.078
_cell_angle_gamma 90.126
_space_group_name_H-M_alt 'P 1'
_space_group_name_Hall 'P 1'
loop_
    _symmetry_equiv_pos_as_xyz
    x,y,z
loop_
    _atom_site_label
    _atom_site_type_symbol
    _atom_site_fract_x
    _atom_site_fract_y
    _atom_site_fract_z
    _atom_site_occupancy
    Zr0     Zr   0.49338   0.19380   0.93868   1.000
    Zr1     Zr   0.99468   0.19382   0.93877   1.000
    Zr2     Zr   0.25250   0.60511   0.54419   1.000
    Zr3     Zr   0.75163   0.60479   0.54418   1.000
    Zr4     Zr   0.00510   0.69531   0.56102   1.000
    Zr5     Zr   0.50643   0.69483   0.56077   1.000
    Zr6     Zr   0.24750   0.10372   0.95568   1.000
    Zr7     Zr   0.74692   0.10380   0.95560   1.000
    Zr8     Zr   0.00498   0.80620   0.06121   1.000
    Zr9     Zr   0.50641   0.80627   0.06118   1.000
    Zr10    Zr   0.24539   0.39486   0.45580   1.000
    Zr11    Zr   0.74625   0.39517   0.45585   1.000
    Zr12    Zr   0.49279   0.30470   0.43903   1.000
    Zr13    Zr   0.99142   0.30513   0.43932   1.000
    Zr14    Zr   0.25263   0.89603   0.04436   1.000
    Zr15    Zr   0.75186   0.89642   0.04425   1.000
    Zr16    Zr   0.99980   0.50102   0.49996   1.000
    Zr17    Zr   0.49807   0.49886   0.50017   1.000
    Zr18    Zr   0.99987   0.99997   0.99993   1.000
    Zr19    Zr   0.49872   0.99999   0.99997   1.000
    Zr20    Zr   0.10207   0.64502   0.46201   1.000
    Zr21    Zr   0.60145   0.64221   0.46180   1.000
    Zr22    Zr   0.41914   0.55336   0.60894   1.000
    Zr23    Zr   0.91915   0.55304   0.60857   1.000
    Zr24    Zr   0.39696   0.14362   0.03807   1.000
    Zr25    Zr   0.89746   0.14341   0.03778   1.000
    Zr26    Zr   0.07979   0.05191   0.89106   1.000
    Zr27    Zr   0.57914   0.05179   0.89121   1.000
    Zr28    Zr   0.39576   0.35483   0.53807   1.000
    Zr29    Zr   0.89633   0.35772   0.53831   1.000
    Zr30    Zr   0.07868   0.44660   0.39118   1.000
    Zr31    Zr   0.57871   0.44705   0.39159   1.000
    Zr32    Zr   0.10221   0.85637   0.96215   1.000
    Zr33    Zr   0.60232   0.85696   0.96182   1.000
    Zr34    Zr   0.42019   0.94798   0.10899   1.000
    Zr35    Zr   0.91972   0.94828   0.10861   1.000
    Zr36    Zr   0.09881   0.62021   0.50691   1.000
    Zr37    Zr   0.59841   0.61798   0.50688   1.000
    Zr38    Zr   0.40979   0.58362   0.56542   1.000
    Zr39    Zr   0.90985   0.58379   0.56522   1.000
    Zr40    Zr   0.40037   0.11873   0.99330   1.000
    Zr41    Zr   0.90073   0.11882   0.99291   1.000
    Zr42    Zr   0.08958   0.08245   0.93430   1.000
    Zr43    Zr   0.58898   0.08266   0.93441   1.000
    Zr44    Zr   0.39911   0.37973   0.49320   1.000
    Zr45    Zr   0.89947   0.38195   0.49324   1.000
    Zr46    Zr   0.08811   0.41630   0.43469   1.000
    Zr47    Zr   0.58809   0.41623   0.43490   1.000
    Zr48    Zr   0.09888   0.88109   0.00698   1.000
    Zr49    Zr   0.59893   0.88164   0.00660   1.000
    Zr50    Zr   0.41019   0.91727   0.06574   1.000
    Zr51    Zr   0.90992   0.91753   0.06536   1.000
    O52     O    0.55267   0.84396   0.03389   1.000
    O53     O    0.60062   0.86930   0.98421   1.000
    O54     O    0.05193   0.84365   0.03410   1.000
    O55     O    0.10054   0.86873   0.98457   1.000
    O56     O    0.89910   0.13112   0.01535   1.000
    O57     O    0.39867   0.13117   0.01569   1.000
    O58     O    0.45830   0.86177   0.06346   1.000
    O59     O    0.95745   0.86187   0.06329   1.000
    O60     O    0.91482   0.93291   0.08699   1.000
    O61     O    0.41519   0.93262   0.08737   1.000
    O62     O    0.08339   0.43145   0.41294   1.000
    O63     O    0.58340   0.43164   0.41325   1.000
    O64     O    0.03976   0.36072   0.43701   1.000
    O65     O    0.54044   0.36047   0.43697   1.000
    O66     O    0.44595   0.34221   0.46612   1.000
    O67     O    0.94544   0.34354   0.46628   1.000
    O68     O    0.59993   0.63010   0.48434   1.000
    O69     O    0.10044   0.63261   0.48446   1.000
    O70     O    0.39744   0.36728   0.51564   1.000
    O71     O    0.89790   0.36983   0.51578   1.000
    O72     O    0.55242   0.65640   0.53383   1.000
    O73     O    0.05195   0.65776   0.53397   1.000
    O74     O    0.45811   0.63922   0.56310   1.000
    O75     O    0.95747   0.63955   0.56312   1.000
    O76     O    0.91450   0.56842   0.58690   1.000
    O77     O    0.41446   0.56849   0.58718   1.000
    O78     O    0.08468   0.06718   0.91268   1.000
    O79     O    0.58406   0.06723   0.91281   1.000
    O80     O    0.04213   0.13813   0.93654   1.000
    O81     O    0.54118   0.13823   0.93655   1.000
    O82     O    0.44687   0.15626   0.96599   1.000
    O83     O    0.94771   0.15632   0.96584   1.000
    O84     O    0.17565   0.61266   0.52555   1.000
    O85     O    0.04931   0.56061   0.50344   1.000
    O86     O    0.67502   0.61139   0.52553   1.000
    O87     O    0.54824   0.55842   0.50353   1.000
    O88     O    0.33114   0.59436   0.55481   1.000
    O89     O    0.45393   0.54124   0.53280   1.000
    O90     O    0.83074   0.59429   0.55470   1.000
    O91     O    0.95483   0.54241   0.53259   1.000
    O92     O    0.32393   0.11123   0.97449   1.000
    O93     O    0.44955   0.05936   0.99664   1.000
    O94     O    0.82382   0.11131   0.97426   1.000
    O95     O    0.95030   0.05940   0.99642   1.000
    O96     O    0.16854   0.09309   0.94499   1.000
    O97     O    0.04473   0.04121   0.96712   1.000
    O98     O    0.66795   0.09323   0.94501   1.000
    O99     O    0.54385   0.04132   0.96719   1.000
    O100    O    0.32225   0.38729   0.47450   1.000
    O101    O    0.44859   0.43930   0.49669   1.000
    O102    O    0.82286   0.38856   0.47455   1.000
    O103    O    0.94963   0.44148   0.49660   1.000
    O104    O    0.16675   0.40558   0.44525   1.000
    O105    O    0.04396   0.45866   0.46733   1.000
    O106    O    0.66717   0.40570   0.44538   1.000
    O107    O    0.54308   0.45755   0.46754   1.000
    O108    O    0.17575   0.88856   0.02567   1.000
    O109    O    0.04937   0.94053   0.00346   1.000
    O110    O    0.67539   0.88903   0.02543   1.000
    O111    O    0.54883   0.94081   0.00329   1.000
    O112    O    0.33141   0.90665   0.05505   1.000
    O113    O    0.45446   0.95863   0.03286   1.000
    O114    O    0.83089   0.90698   0.05481   1.000
    O115    O    0.95490   0.95875   0.03265   1.000
    N116    N    0.74894   0.99995   0.49989   1.000
    O117    O    0.75468   0.83697   0.51321   1.000
    O118    O    0.85898   0.87534   0.52138   1.000
    O119    O    0.74320   0.16294   0.48666   1.000
    O120    O    0.63890   0.12460   0.47851   1.000
    N121    N    0.24896   0.99999   0.50007   1.000
    O122    O    0.25537   0.83713   0.51329   1.000
    O123    O    0.35974   0.87531   0.52149   1.000
    O124    O    0.24253   0.16284   0.48679   1.000
    O125    O    0.13815   0.12465   0.47861   1.000
    N126    N    0.75644   0.81364   0.78444   1.000
    O127    O    0.75059   0.72063   0.68867   1.000
    O128    O    0.75647   0.92163   0.86524   1.000
    O129    O    0.65072   0.76265   0.69369   1.000
    O130    O    0.86141   0.89026   0.87005   1.000
    N131    N    0.25626   0.81435   0.78426   1.000
    O132    O    0.36103   0.89060   0.86998   1.000
    O133    O    0.25659   0.92192   0.86523   1.000
    O134    O    0.15033   0.76397   0.69345   1.000
    O135    O    0.25029   0.72111   0.68857   1.000
    N136    N    0.74307   0.31312   0.71548   1.000
    O137    O    0.74919   0.21961   0.81116   1.000
    O138    O    0.74254   0.42188   0.63473   1.000
    O139    O    0.63746   0.38932   0.62988   1.000
    O140    O    0.84925   0.26255   0.80626   1.000
    N141    N    0.25587   0.68680   0.28473   1.000
    O142    O    0.15001   0.73744   0.19385   1.000
    O143    O    0.25010   0.78026   0.18895   1.000
    O144    O    0.25581   0.57792   0.36544   1.000
    O145    O    0.36063   0.60992   0.37037   1.000
    N146    N    0.75624   0.68726   0.28478   1.000
    O147    O    0.65070   0.73800   0.19394   1.000
    O148    O    0.75043   0.78060   0.18893   1.000
    O149    O    0.75611   0.57830   0.36543   1.000
    O150    O    0.86123   0.61080   0.37035   1.000
    N151    N    0.25058   0.50009   0.99986   1.000
    O152    O    0.25603   0.66330   0.01375   1.000
    O153    O    0.36049   0.62543   0.02144   1.000
    O154    O    0.24493   0.33677   0.98609   1.000
    O155    O    0.14068   0.37467   0.97840   1.000
    N156    N    0.74920   0.49991   0.00012   1.000
    O157    O    0.75475   0.66327   0.01388   1.000
    O158    O    0.74368   0.33666   0.98621   1.000
    O159    O    0.63929   0.37459   0.97852   1.000
    O160    O    0.85906   0.62533   0.02157   1.000
    N161    N    0.24244   0.31305   0.71517   1.000
    O162    O    0.24870   0.21959   0.81099   1.000
    O163    O    0.24231   0.42198   0.63449   1.000
    O164    O    0.13751   0.38995   0.62964   1.000
    O165    O    0.34837   0.26242   0.80603   1.000
    N166    N    0.74215   0.18670   0.21537   1.000
    O167    O    0.63733   0.10989   0.12978   1.000
    O168    O    0.84753   0.23753   0.30626   1.000
    O169    O    0.74764   0.27953   0.31124   1.000
    O170    O    0.74233   0.07866   0.13460   1.000
    N171    N    0.24237   0.18573   0.21561   1.000
    O172    O    0.34797   0.23612   0.30650   1.000
    O173    O    0.24796   0.27891   0.31136   1.000
    O174    O    0.24257   0.07800   0.13470   1.000
    O175    O    0.13772   0.10938   0.12991   1.000
loop_
    _geom_bond_atom_site_label_1
    _geom_bond_atom_site_label_2
    _geom_bond_distance
    _geom_bond_site_symmetry_2
    _ccdc_geom_bond_type
    Zr49   O52       0.99920      .   S
    Zr9    O52       0.99920      .   S
    Zr49   O53       0.48736  1_554   S
    Zr33   O53       0.48736      .   S
    Zr48   O54       1.00098      .   S
    Zr8    O54       1.00098      .   S
    Zr48   O55       0.48789  1_554   S
    Zr32   O55       0.48789      .   S
    Zr25   O56       0.48788      .   S
    Zr41   O56       0.48788  1_556   S
    Zr24   O57       0.48783      .   S
    Zr40   O57       0.48783  1_556   S
    Zr9    O58       1.00786      .   S
    Zr50   O58       1.00786      .   S
    Zr8    O59       1.00477  1_455   S
    Zr51   O59       1.00477      .   S
    Zr51   O60       0.48763      .   S
    Zr35   O60       0.48763      .   S
    Zr50   O61       0.48758      .   S
    Zr34   O61       0.48758      .   S
    Zr30   O62       0.48768      .   S
    Zr46   O62       0.48768      .   S
    Zr31   O63       0.48753      .   S
    Zr47   O63       0.48753      .   S
    Zr46   O64       1.00852      .   S
    Zr13   O64       1.00852  1_655   S
    Zr47   O65       1.00460      .   S
    Zr12   O65       1.00460      .   S
    Zr12   O66       1.00294      .   S
    Zr44   O66       1.00294      .   S
    Zr13   O67       1.00120      .   S
    Zr45   O67       1.00120      .   S
    Zr21   O68       0.48799      .   S
    Zr37   O68       0.48799      .   S
    Zr20   O69       0.48796      .   S
    Zr36   O69       0.48796      .   S
    Zr44   O70       0.48798      .   S
    Zr28   O70       0.48798      .   S
    Zr45   O71       0.48797      .   S
    Zr29   O71       0.48797      .   S
    Zr37   O72       1.00126      .   S
    Zr5    O72       1.00126      .   S
    Zr36   O73       1.00298      .   S
    Zr4    O73       1.00298      .   S
    Zr5    O74       1.00852      .   S
    Zr38   O74       1.00852      .   S
    Zr4    O75       1.00436  1_455   S
    Zr39   O75       1.00436      .   S
    Zr39   O76       0.48763      .   S
    Zr23   O76       0.48763      .   S
    Zr38   O77       0.48761      .   S
    Zr22   O77       0.48761      .   S
    Zr26   O78       0.48690      .   S
    Zr42   O78       0.48690      .   S
    Zr27   O79       0.48760      .   S
    Zr43   O79       0.48760      .   S
    Zr42   O80       1.00465      .   S
    Zr1    O80       1.00465  1_655   S
    Zr43   O81       1.00596      .   S
    Zr0    O81       1.00596      .   S
    Zr0    O82       1.00032      .   S
    Zr40   O82       1.00032      .   S
    Zr1    O83       1.00105      .   S
    Zr41   O83       1.00105      .   S
    Zr36   O84       1.02860      .   S
    Zr2    O84       1.02860      .   S
    Zr36   O85       1.05806      .   S
    Zr16   O85       1.05806  1_655   S
    Zr37   O86       1.02452      .   S
    Zr3    O86       1.02452      .   S
    Zr37   O87       1.06277      .   S
    Zr17   O87       1.06277      .   S
    Zr38   O88       1.02377      .   S
    Zr2    O88       1.02377      .   S
    Zr38   O89       1.08972      .   S
    Zr17   O89       1.08972      .   S
    Zr39   O90       1.02873      .   S
    Zr3    O90       1.02873      .   S
    Zr39   O91       1.08822      .   S
    Zr16   O91       1.08822      .   S
    Zr40   O92       1.02441      .   S
    Zr6    O92       1.02441      .   S
    Zr40   O93       1.05497      .   S
    Zr19   O93       1.05497  1_565   S
    Zr41   O94       1.02911      .   S
    Zr7    O94       1.02911      .   S
    Zr41   O95       1.05866      .   S
    Zr18   O95       1.05866  1_565   S
    Zr42   O96       1.02705      .   S
    Zr6    O96       1.02705      .   S
    Zr42   O97       1.08564      .   S
    Zr18   O97       1.08564  1_665   S
    Zr43   O98       1.02679      .   S
    Zr7    O98       1.02679      .   S
    Zr43   O99       1.08798      .   S
    Zr19   O99       1.08798  1_565   S
    Zr44   O100      1.02917      .   S
    Zr10   O100      1.02917      .   S
    Zr44   O101      1.05754      .   S
    Zr17   O101      1.05754      .   S
    Zr45   O102      1.02483      .   S
    Zr11   O102      1.02483      .   S
    Zr45   O103      1.06245      .   S
    Zr16   O103      1.06245      .   S
    Zr46   O104      1.02346      .   S
    Zr10   O104      1.02346      .   S
    Zr46   O105      1.08981      .   S
    Zr16   O105      1.08981  1_655   S
    Zr47   O106      1.02830      .   S
    Zr11   O106      1.02830      .   S
    Zr47   O107      1.08798      .   S
    Zr17   O107      1.08798      .   S
    Zr48   O108      1.02888      .   S
    Zr14   O108      1.02888      .   S
    Zr48   O109      1.05827      .   S
    Zr18   O109      1.05827  1_656   S
    Zr49   O110      1.02465      .   S
    Zr15   O110      1.02465      .   S
    Zr49   O111      1.05983      .   S
    Zr19   O111      1.05983  1_556   S
    Zr50   O112      1.02482      .   S
    Zr14   O112      1.02482      .   S
    Zr50   O113      1.08312      .   S
    Zr19   O113      1.08312  1_556   S
    Zr51   O114      1.02745      .   S
    Zr15   O114      1.02745      .   S
    Zr51   O115      1.08507      .   S
    Zr18   O115      1.08507  1_556   S
    N116   O117      2.33905      .   S
    Zr3    O117      3.36811      .   S
    N116   O118      2.28761      .   S
    Zr4    O118      3.23773  1_455   S
    N116   O119      2.33902  1_565   S
    Zr11   O119      3.36812      .   S
    N116   O120      2.28773  1_565   S
    Zr12   O120      3.23779      .   S
    N121   O122      2.33733      .   S
    Zr2    O122      3.36546      .   S
    N121   O123      2.29391      .   S
    Zr5    O123      3.24555      .   S
    N121   O124      2.33745  1_565   S
    Zr10   O124      3.36571      .   S
    N121   O125      2.29403  1_565   S
    Zr13   O125      3.24586  1_655   S
    N126   O127      2.34128      .   S
    Zr3    O127      3.35435      .   S
    N126   O128      2.24452      .   S
    Zr7    O128      3.18507  1_545   S
    N126   O129      2.29767      .   S
    Zr5    O129      3.26663      .   S
    N126   O130      2.36151      .   S
    Zr18   O130      3.41227      .   S
    N131   O132      2.35937      .   S
    Zr19   O132      3.40732      .   S
    N131   O133      2.24266      .   S
    Zr6    O133      3.18136  1_545   S
    N131   O134      2.29706      .   S
    Zr4    O134      3.26866      .   S
    N131   O135      2.34174      .   S
    Zr2    O135      3.35478      .   S
    N136   O137      2.33904      .   S
    Zr7    O137      3.34805      .   S
    N136   O138      2.24606      .   S
    Zr3    O138      3.18821      .   S
    N136   O139      2.36199      .   S
    Zr17   O139      3.41235      .   S
    N136   O140      2.29854      .   S
    Zr1    O140      3.27027      .   S
    N141   O142      2.29815      .   S
    Zr8    O142      3.26985      .   S
    N141   O143      2.34037      .   S
    Zr14   O143      3.35069      .   S
    N141   O144      2.24701      .   S
    Zr10   O144      3.18947      .   S
    N141   O145      2.36148      .   S
    Zr17   O145      3.41233      .   S
    N146   O147      2.29593      .   S
    Zr9    O147      3.26491      .   S
    N146   O148      2.34061      .   S
    Zr15   O148      3.35149      .   S
    N146   O149      2.24697      .   S
    Zr11   O149      3.19017      .   S
    N146   O150      2.35923      .   S
    Zr16   O150      3.40767      .   S
    N151   O152      2.34446  1_556   S
    Zr14   O152      3.37748      .   S
    N151   O153      2.29167  1_556   S
    Zr9    O153      3.24228      .   S
    N151   O154      2.34566      .   S
    Zr6    O154      3.38088      .   S
    N151   O155      2.29200      .   S
    Zr1    O155      3.24246  1_655   S
    N156   O157      2.34626      .   S
    Zr15   O157      3.38223      .   S
    N156   O158      2.34519  1_554   S
    Zr7    O158      3.37919      .   S
    N156   O159      2.29151  1_554   S
    Zr0    O159      3.24193      .   S
    N156   O160      2.29179      .   S
    Zr8    O160      3.24207  1_455   S
    N161   O162      2.34074      .   S
    Zr6    O162      3.35174      .   S
    N161   O163      2.24698      .   S
    Zr2    O163      3.18926      .   S
    N161   O164      2.36127      .   S
    Zr16   O164      3.41217  1_655   S
    N161   O165      2.29818      .   S
    Zr0    O165      3.26931      .   S
    N166   O167      2.36152      .   S
    Zr19   O167      3.41346  1_566   S
    N166   O168      2.29669      .   S
    Zr13   O168      3.26530      .   S
    N166   O169      2.34169      .   S
    Zr11   O169      3.35538      .   S
    N166   O170      2.24482      .   S
    Zr15   O170      3.18572  1_565   S
    N171   O172      2.29610      .   S
    Zr12   O172      3.26713      .   S
    N171   O173      2.34235      .   S
    Zr10   O173      3.35589      .   S
    N171   O174      2.24389      .   S
    Zr14   O174      3.18318  1_565   S
    N171   O175      2.35905      .   S
    Zr18   O175      3.40821  1_666   S
