# CIF file generated by openbabel 2.4.90, see http://openbabel.sf.net
data_I
_chemical_name_common ''
_cell_length_a 12.819
_cell_length_b 14.257
_cell_length_c 20.172
_cell_angle_alpha 89.872
_cell_angle_beta 95.078
_cell_angle_gamma 90.126
_space_group_name_H-M_alt 'P 1'
_space_group_name_Hall 'P 1'
loop_
    _symmetry_equiv_pos_as_xyz
    x,y,z
loop_
    _atom_site_label
    _atom_site_type_symbol
    _atom_site_fract_x
    _atom_site_fract_y
    _atom_site_fract_z
    _atom_site_occupancy
    C0      C    0.49338   0.19380   0.93868   1.000
    C1      C    0.99468   0.19382   0.93877   1.000
    C2      C    0.25250   0.60511   0.54419   1.000
    C3      C    0.75163   0.60479   0.54418   1.000
    C4      C    0.00510   0.69531   0.56102   1.000
    C5      C    0.50643   0.69483   0.56077   1.000
    C6      C    0.24750   0.10372   0.95568   1.000
    C7      C    0.74692   0.10380   0.95560   1.000
    C8      C    0.00498   0.80620   0.06121   1.000
    C9      C    0.50641   0.80627   0.06118   1.000
    C10     C    0.24539   0.39486   0.45580   1.000
    C11     C    0.74625   0.39517   0.45585   1.000
    C12     C    0.49279   0.30470   0.43903   1.000
    C13     C    0.99142   0.30513   0.43932   1.000
    C14     C    0.25263   0.89603   0.04436   1.000
    C15     C    0.75186   0.89642   0.04425   1.000
    C16     C    0.99980   0.50102   0.49996   1.000
    C17     C    0.49807   0.49886   0.50017   1.000
    C18     C    0.99987   0.99997   0.99993   1.000
    C19     C    0.49872   0.99999   0.99997   1.000
    C20     C    0.05398   0.30147   0.67276   1.000
    C21     C    0.55471   0.30068   0.67286   1.000
    C22     C    0.12210   0.20805   0.77245   1.000
    C23     C    0.62319   0.20739   0.77256   1.000
    C24     C    0.42912   0.32306   0.75752   1.000
    C25     C    0.92949   0.32420   0.75815   1.000
    C26     C    0.36264   0.41224   0.65594   1.000
    C27     C    0.86271   0.41322   0.65650   1.000
    C28     C    0.36289   0.37081   0.96442   1.000
    C29     C    0.86153   0.37060   0.96468   1.000
    C30     C    0.06817   0.46657   0.02536   1.000
    C31     C    0.56702   0.46629   0.02592   1.000
    C32     C    0.10207   0.64502   0.46201   1.000
    C33     C    0.60145   0.64221   0.46180   1.000
    C34     C    0.41914   0.55336   0.60894   1.000
    C35     C    0.91915   0.55304   0.60857   1.000
    C36     C    0.44483   0.80367   0.82658   1.000
    C37     C    0.94476   0.80275   0.82719   1.000
    C38     C    0.37696   0.71092   0.72660   1.000
    C39     C    0.87706   0.70938   0.72752   1.000
    C40     C    0.06971   0.82403   0.74172   1.000
    C41     C    0.57002   0.82349   0.74151   1.000
    C42     C    0.13589   0.91231   0.84364   1.000
    C43     C    0.63608   0.91270   0.84302   1.000
    C44     C    0.13834   0.86853   0.53499   1.000
    C45     C    0.63717   0.86939   0.53501   1.000
    C46     C    0.43166   0.96956   0.47422   1.000
    C47     C    0.93099   0.96789   0.47339   1.000
    C48     C    0.39696   0.14362   0.03807   1.000
    C49     C    0.89746   0.14341   0.03778   1.000
    C50     C    0.07979   0.05191   0.89106   1.000
    C51     C    0.57914   0.05179   0.89121   1.000
    C52     C    0.44427   0.69844   0.32733   1.000
    C53     C    0.94450   0.69886   0.32773   1.000
    C54     C    0.37633   0.79187   0.22750   1.000
    C55     C    0.87695   0.79244   0.22793   1.000
    C56     C    0.06933   0.67663   0.24215   1.000
    C57     C    0.56981   0.67717   0.24191   1.000
    C58     C    0.13560   0.58748   0.34380   1.000
    C59     C    0.63575   0.58771   0.34352   1.000
    C60     C    0.13820   0.62944   0.03521   1.000
    C61     C    0.63689   0.62916   0.03562   1.000
    C62     C    0.43280   0.53367   0.97415   1.000
    C63     C    0.93154   0.53347   0.97453   1.000
    C64     C    0.39576   0.35483   0.53807   1.000
    C65     C    0.89633   0.35772   0.53831   1.000
    C66     C    0.07868   0.44660   0.39118   1.000
    C67     C    0.57871   0.44705   0.39159   1.000
    C68     C    0.05399   0.19639   0.17291   1.000
    C69     C    0.55385   0.19718   0.17251   1.000
    C70     C    0.12136   0.28930   0.27292   1.000
    C71     C    0.62108   0.29051   0.27231   1.000
    C72     C    0.42879   0.17624   0.25847   1.000
    C73     C    0.92862   0.17749   0.25830   1.000
    C74     C    0.36309   0.08772   0.15655   1.000
    C75     C    0.86302   0.08836   0.15663   1.000
    C76     C    0.35961   0.13146   0.46521   1.000
    C77     C    0.86070   0.13050   0.46460   1.000
    C78     C    0.06627   0.03041   0.52595   1.000
    C79     C    0.56690   0.03201   0.52633   1.000
    C80     C    0.10221   0.85637   0.96215   1.000
    C81     C    0.60232   0.85696   0.96182   1.000
    C82     C    0.42019   0.94798   0.10899   1.000
    C83     C    0.91972   0.94828   0.10861   1.000
    C84     C    0.16356   0.42134   0.59958   1.000
    C85     C    0.66391   0.42118   0.59980   1.000
    C86     C    0.20368   0.36337   0.65833   1.000
    C87     C    0.70407   0.36342   0.65867   1.000
    C88     C    0.13625   0.30533   0.69132   1.000
    C89     C    0.63690   0.30497   0.69154   1.000
    C90     C    0.17420   0.25317   0.74675   1.000
    C91     C    0.67506   0.25289   0.74697   1.000
    C92     C    0.28003   0.25962   0.77096   1.000
    C93     C    0.78079   0.25986   0.77130   1.000
    C94     C    0.34749   0.31757   0.73792   1.000
    C95     C    0.84795   0.31828   0.73843   1.000
    C96     C    0.30999   0.36787   0.68174   1.000
    C97     C    0.81026   0.36851   0.68226   1.000
    C98     C    0.32119   0.20790   0.83277   1.000
    C99     C    0.82221   0.20804   0.83302   1.000
    C100    C    0.16748   0.31100   0.98573   1.000
    C101    C    0.66599   0.31087   0.98584   1.000
    C102    C    0.21065   0.40842   0.99409   1.000
    C103    C    0.70934   0.40821   0.99441   1.000
    C104    C    0.31393   0.42739   0.98013   1.000
    C105    C    0.81263   0.42719   0.98044   1.000
    C106    C    0.14779   0.48186   0.01389   1.000
    C107    C    0.64656   0.48162   0.01433   1.000
    C108    C    0.33479   0.92140   0.90022   1.000
    C109    C    0.83475   0.92151   0.90016   1.000
    C110    C    0.29491   0.86428   0.84117   1.000
    C111    C    0.79497   0.86406   0.84119   1.000
    C112    C    0.36256   0.80718   0.80800   1.000
    C113    C    0.86258   0.80641   0.80843   1.000
    C114    C    0.32478   0.75546   0.75243   1.000
    C115    C    0.82488   0.75429   0.75303   1.000
    C116    C    0.21891   0.76149   0.72831   1.000
    C117    C    0.71912   0.76039   0.72865   1.000
    C118    C    0.15132   0.81877   0.76130   1.000
    C119    C    0.65154   0.81817   0.76133   1.000
    C120    C    0.18863   0.86855   0.81772   1.000
    C121    C    0.68881   0.86846   0.81747   1.000
    C122    C    0.17766   0.70994   0.66657   1.000
    C123    C    0.67820   0.70839   0.66702   1.000
    C124    C    0.33411   0.81183   0.51339   1.000
    C125    C    0.83245   0.81149   0.51315   1.000
    C126    C    0.29003   0.90883   0.50543   1.000
    C127    C    0.78897   0.90855   0.50502   1.000
    C128    C    0.18652   0.92606   0.51946   1.000
    C129    C    0.68582   0.92653   0.51940   1.000
    C130    C    0.35191   0.98346   0.48588   1.000
    C131    C    0.85154   0.98257   0.48527   1.000
    C132    C    0.33449   0.57857   0.40042   1.000
    C133    C    0.83438   0.57883   0.40041   1.000
    C134    C    0.29454   0.63646   0.34160   1.000
    C135    C    0.79467   0.63687   0.34164   1.000
    C136    C    0.36204   0.69454   0.30868   1.000
    C137    C    0.86234   0.69499   0.30892   1.000
    C138    C    0.32419   0.74669   0.25321   1.000
    C139    C    0.82472   0.74725   0.25347   1.000
    C140    C    0.21841   0.74020   0.22890   1.000
    C141    C    0.71902   0.74074   0.22901   1.000
    C142    C    0.15091   0.68218   0.26184   1.000
    C143    C    0.65132   0.68268   0.26176   1.000
    C144    C    0.18829   0.63190   0.31806   1.000
    C145    C    0.68852   0.63224   0.31792   1.000
    C146    C    0.17731   0.79194   0.16707   1.000
    C147    C    0.67815   0.79261   0.16725   1.000
    C148    C    0.33380   0.68911   0.01413   1.000
    C149    C    0.83229   0.68902   0.01426   1.000
    C150    C    0.29044   0.59177   0.00558   1.000
    C151    C    0.78910   0.59159   0.00588   1.000
    C152    C    0.18712   0.57283   0.01949   1.000
    C153    C    0.68585   0.57259   0.01990   1.000
    C154    C    0.35323   0.51836   0.98569   1.000
    C155    C    0.85194   0.51816   0.98605   1.000
    C156    C    0.16434   0.07839   0.09969   1.000
    C157    C    0.66436   0.07879   0.09961   1.000
    C158    C    0.20403   0.13576   0.15867   1.000
    C159    C    0.70392   0.13640   0.15852   1.000
    C160    C    0.13618   0.19290   0.19166   1.000
    C161    C    0.63603   0.19377   0.19129   1.000
    C162    C    0.17369   0.24476   0.24720   1.000
    C163    C    0.67346   0.24584   0.24677   1.000
    C164    C    0.27945   0.23870   0.27158   1.000
    C165    C    0.77922   0.24000   0.27118   1.000
    C166    C    0.34727   0.18147   0.23865   1.000
    C167    C    0.84709   0.18257   0.23845   1.000
    C168    C    0.31021   0.13153   0.18232   1.000
    C169    C    0.81010   0.13235   0.18223   1.000
    C170    C    0.32042   0.29026   0.33337   1.000
    C171    C    0.81983   0.29177   0.33296   1.000
    C172    C    0.16379   0.18814   0.48671   1.000
    C173    C    0.66544   0.18843   0.48670   1.000
    C174    C    0.20789   0.09115   0.49472   1.000
    C175    C    0.70892   0.09135   0.49472   1.000
    C176    C    0.31141   0.07392   0.48071   1.000
    C177    C    0.81206   0.07336   0.48030   1.000
    C178    C    0.14601   0.01652   0.51429   1.000
    C179    C    0.64634   0.01732   0.51444   1.000
    C180    C    0.23185   0.45672   0.56344   1.000
    C181    C    0.73240   0.45651   0.56377   1.000
    C182    C    0.06535   0.43268   0.58825   1.000
    C183    C    0.56563   0.43219   0.58839   1.000
    C184    C    0.41522   0.22979   0.85509   1.000
    C185    C    0.91618   0.23014   0.85532   1.000
    C186    C    0.26240   0.14856   0.85794   1.000
    C187    C    0.76370   0.14842   0.85810   1.000
    C188    C    0.23105   0.24320   0.98897   1.000
    C189    C    0.72942   0.24300   0.98902   1.000
    C190    C    0.06691   0.30470   0.97511   1.000
    C191    C    0.56539   0.30473   0.97515   1.000
    C192    C    0.09881   0.62021   0.50691   1.000
    C193    C    0.59841   0.61798   0.50688   1.000
    C194    C    0.40979   0.58362   0.56542   1.000
    C195    C    0.90985   0.58379   0.56522   1.000
    C196    C    0.26634   0.95527   0.93670   1.000
    C197    C    0.76607   0.95546   0.93646   1.000
    C198    C    0.43289   0.93373   0.91143   1.000
    C199    C    0.93286   0.93381   0.91140   1.000
    C200    C    0.08372   0.73189   0.64426   1.000
    C201    C    0.58354   0.72849   0.64510   1.000
    C202    C    0.23617   0.65064   0.64157   1.000
    C203    C    0.73786   0.65045   0.64162   1.000
    C204    C    0.27106   0.74343   0.50883   1.000
    C205    C    0.76921   0.74320   0.50890   1.000
    C206    C    0.43462   0.80645   0.52506   1.000
    C207    C    0.93293   0.80615   0.52473   1.000
    C208    C    0.40037   0.11873   0.99330   1.000
    C209    C    0.90073   0.11882   0.99291   1.000
    C210    C    0.08958   0.08245   0.93430   1.000
    C211    C    0.58898   0.08266   0.93441   1.000
    C212    C    0.26610   0.54324   0.43650   1.000
    C213    C    0.76572   0.54348   0.43629   1.000
    C214    C    0.43270   0.56723   0.41186   1.000
    C215    C    0.93263   0.56764   0.41188   1.000
    C216    C    0.08334   0.76997   0.14472   1.000
    C217    C    0.58392   0.77121   0.14500   1.000
    C218    C    0.23602   0.85140   0.14198   1.000
    C219    C    0.73738   0.85144   0.14190   1.000
    C220    C    0.27036   0.75698   0.01091   1.000
    C221    C    0.76875   0.75684   0.01102   1.000
    C222    C    0.43438   0.69526   0.02486   1.000
    C223    C    0.93288   0.69528   0.02485   1.000
    C224    C    0.39911   0.37973   0.49320   1.000
    C225    C    0.89947   0.38195   0.49324   1.000
    C226    C    0.08811   0.41630   0.43469   1.000
    C227    C    0.58809   0.41623   0.43490   1.000
    C228    C    0.23289   0.04453   0.06320   1.000
    C229    C    0.73316   0.04481   0.06341   1.000
    C230    C    0.06624   0.06610   0.08847   1.000
    C231    C    0.56630   0.06619   0.08841   1.000
    C232    C    0.41434   0.26834   0.35575   1.000
    C233    C    0.91441   0.27158   0.35499   1.000
    C234    C    0.26170   0.34933   0.35840   1.000
    C235    C    0.76001   0.34954   0.35838   1.000
    C236    C    0.22682   0.25655   0.49124   1.000
    C237    C    0.72869   0.25670   0.49100   1.000
    C238    C    0.06329   0.19350   0.47498   1.000
    C239    C    0.56495   0.19380   0.47524   1.000
    C240    C    0.09888   0.88109   0.00698   1.000
    C241    C    0.59893   0.88164   0.00660   1.000
    C242    C    0.41019   0.91727   0.06574   1.000
    C243    C    0.90992   0.91753   0.06536   1.000
    O244    O    0.31212   0.64044   0.00986   1.000
    O245    O    0.23878   0.58230   0.01254   1.000
    O246    O    0.32184   0.55507   0.99564   1.000
    O247    O    0.81069   0.64031   0.01007   1.000
    O248    O    0.73748   0.58209   0.01289   1.000
    O249    O    0.82052   0.55488   0.99597   1.000
    O250    O    0.55267   0.84396   0.03389   1.000
    O251    O    0.60062   0.86930   0.98421   1.000
    O252    O    0.05193   0.84365   0.03410   1.000
    O253    O    0.10054   0.86873   0.98457   1.000
    O254    O    0.30208   0.72305   0.01252   1.000
    O255    O    0.26149   0.82651   0.02764   1.000
    O256    O    0.80052   0.72293   0.01264   1.000
    O257    O    0.76030   0.82663   0.02764   1.000
    O258    O    0.16746   0.52735   0.01669   1.000
    O259    O    0.10798   0.47422   0.01963   1.000
    O260    O    0.17922   0.44514   0.00399   1.000
    O261    O    0.38409   0.69218   0.01950   1.000
    O262    O    0.88258   0.69215   0.01956   1.000
    O263    O    0.66621   0.52710   0.01712   1.000
    O264    O    0.60679   0.47395   0.02013   1.000
    O265    O    0.67795   0.44491   0.00437   1.000
    O266    O    0.16266   0.60113   0.02735   1.000
    O267    O    0.66137   0.60088   0.02776   1.000
    O268    O    0.96893   0.75074   0.04303   1.000
    O269    O    0.47040   0.75077   0.04302   1.000
    O270    O    0.89910   0.13112   0.01535   1.000
    O271    O    0.39867   0.13117   0.01569   1.000
    O272    O    0.74251   0.97061   0.05383   1.000
    O273    O    0.74462   0.87393   0.09308   1.000
    O274    O    0.24276   0.97028   0.05378   1.000
    O275    O    0.24433   0.87372   0.09317   1.000
    O276    O    0.45830   0.86177   0.06346   1.000
    O277    O    0.54517   0.78874   0.10309   1.000
    O278    O    0.95745   0.86187   0.06329   1.000
    O279    O    0.04416   0.78809   0.10297   1.000
    O280    O    0.19861   0.06146   0.08145   1.000
    O281    O    0.69876   0.06180   0.08151   1.000
    O282    O    0.91482   0.93291   0.08699   1.000
    O283    O    0.41519   0.93262   0.08737   1.000
    O284    O    0.61533   0.07249   0.09401   1.000
    O285    O    0.53251   0.03309   0.04419   1.000
    O286    O    0.11529   0.07225   0.09408   1.000
    O287    O    0.03306   0.03304   0.04420   1.000
    O288    O    0.68414   0.10760   0.12907   1.000
    O289    O    0.18418   0.10708   0.12918   1.000
    O290    O    0.70777   0.82203   0.15458   1.000
    O291    O    0.20667   0.82167   0.15453   1.000
    O292    O    0.13033   0.78096   0.15590   1.000
    O293    O    0.63104   0.78191   0.15613   1.000
    O294    O    0.33665   0.10963   0.16944   1.000
    O295    O    0.83656   0.11035   0.16943   1.000
    O296    O    0.75701   0.13437   0.17038   1.000
    O297    O    0.66998   0.16508   0.17491   1.000
    O298    O    0.25712   0.13365   0.17050   1.000
    O299    O    0.17011   0.16433   0.17517   1.000
    O300    O    0.19786   0.76607   0.19799   1.000
    O301    O    0.69859   0.76667   0.19813   1.000
    O302    O    0.59494   0.19547   0.18190   1.000
    O303    O    0.09508   0.19464   0.18229   1.000
    O304    O    0.82860   0.15746   0.21034   1.000
    O305    O    0.32874   0.15650   0.21049   1.000
    O306    O    0.65475   0.21980   0.21903   1.000
    O307    O    0.15494   0.21883   0.21943   1.000
    O308    O    0.35026   0.76928   0.24036   1.000
    O309    O    0.85084   0.76984   0.24070   1.000
    O310    O    0.27130   0.74344   0.24106   1.000
    O311    O    0.18466   0.71119   0.24537   1.000
    O312    O    0.77187   0.74399   0.24124   1.000
    O313    O    0.68517   0.71171   0.24539   1.000
    O314    O    0.88786   0.18003   0.24838   1.000
    O315    O    0.81316   0.21129   0.25482   1.000
    O316    O    0.38803   0.17885   0.24856   1.000
    O317    O    0.31336   0.21008   0.25512   1.000
    O318    O    0.61057   0.67993   0.25184   1.000
    O319    O    0.11012   0.67940   0.25200   1.000
    O320    O    0.72634   0.24292   0.25898   1.000
    O321    O    0.64727   0.26817   0.25954   1.000
    O322    O    0.22657   0.24173   0.25939   1.000
    O323    O    0.14753   0.26703   0.26006   1.000
    O324    O    0.34311   0.72061   0.28095   1.000
    O325    O    0.84353   0.72112   0.28120   1.000
    O326    O    0.66992   0.65746   0.28984   1.000
    O327    O    0.16960   0.65704   0.28995   1.000
    O328    O    0.79952   0.26588   0.30207   1.000
    O329    O    0.29993   0.26448   0.30248   1.000
    O330    O    0.40315   0.69649   0.31801   1.000
    O331    O    0.32829   0.66550   0.32514   1.000
    O332    O    0.90342   0.69693   0.31833   1.000
    O333    O    0.82851   0.66593   0.32528   1.000
    O334    O    0.74159   0.63455   0.32978   1.000
    O335    O    0.66213   0.60997   0.33072   1.000
    O336    O    0.24142   0.63418   0.32983   1.000
    O337    O    0.16195   0.60969   0.33093   1.000
    O338    O    0.86712   0.28168   0.34398   1.000
    O339    O    0.78992   0.32065   0.34567   1.000
    O340    O    0.36738   0.27930   0.34456   1.000
    O341    O    0.29106   0.31979   0.34589   1.000
    O342    O    0.31452   0.60752   0.37101   1.000
    O343    O    0.81453   0.60785   0.37103   1.000
    O344    O    0.95291   0.28836   0.39716   1.000
    O345    O    0.45356   0.28652   0.39739   1.000
    O346    O    0.75313   0.37236   0.40712   1.000
    O347    O    0.25354   0.37209   0.40710   1.000
    O348    O    0.08339   0.43145   0.41294   1.000
    O349    O    0.58340   0.43164   0.41325   1.000
    O350    O    0.88351   0.57324   0.40615   1.000
    O351    O    0.80005   0.56116   0.41835   1.000
    O352    O    0.38360   0.57290   0.40614   1.000
    O353    O    0.30030   0.56091   0.41846   1.000
    O354    O    0.46538   0.53305   0.45602   1.000
    O355    O    0.96622   0.53433   0.45592   1.000
    O356    O    0.03976   0.36072   0.43701   1.000
    O357    O    0.54044   0.36047   0.43697   1.000
    O358    O    0.75598   0.46933   0.44607   1.000
    O359    O    0.25575   0.46905   0.44615   1.000
    O360    O    0.52887   0.24925   0.45714   1.000
    O361    O    0.44595   0.34221   0.46612   1.000
    O362    O    0.02735   0.24931   0.45715   1.000
    O363    O    0.94544   0.34354   0.46628   1.000
    O364    O    0.23611   0.32570   0.47352   1.000
    O365    O    0.73747   0.32594   0.47343   1.000
    O366    O    0.59993   0.63010   0.48434   1.000
    O367    O    0.10044   0.63261   0.48446   1.000
    O368    O    0.83638   0.10193   0.47245   1.000
    O369    O    0.33551   0.10269   0.47296   1.000
    O370    O    0.89127   0.97523   0.47933   1.000
    O371    O    0.39179   0.97651   0.48005   1.000
    O372    O    0.11354   0.19082   0.48085   1.000
    O373    O    0.61519   0.19112   0.48097   1.000
    O374    O    0.83180   0.02797   0.48279   1.000
    O375    O    0.76049   0.08235   0.48751   1.000
    O376    O    0.33166   0.02869   0.48330   1.000
    O377    O    0.25965   0.08253   0.48772   1.000
    O378    O    0.82025   0.94556   0.49515   1.000
    O379    O    0.32097   0.94614   0.49566   1.000
    O380    O    0.69707   0.22256   0.48885   1.000
    O381    O    0.68718   0.13989   0.49071   1.000
    O382    O    0.19531   0.22235   0.48898   1.000
    O383    O    0.18584   0.13965   0.49072   1.000
    O384    O    0.39744   0.36728   0.51564   1.000
    O385    O    0.89790   0.36983   0.51578   1.000
    O386    O    0.67763   0.05433   0.50458   1.000
    O387    O    0.17695   0.05384   0.50451   1.000
    O388    O    0.03257   0.46685   0.54411   1.000
    O389    O    0.53185   0.46553   0.54428   1.000
    O390    O    0.81071   0.86002   0.50909   1.000
    O391    O    0.73739   0.91754   0.51221   1.000
    O392    O    0.31207   0.86033   0.50941   1.000
    O393    O    0.23827   0.91745   0.51245   1.000
    O394    O    0.55242   0.65640   0.53383   1.000
    O395    O    0.05195   0.65776   0.53397   1.000
    O396    O    0.30258   0.77763   0.51111   1.000
    O397    O    0.26178   0.67427   0.52651   1.000
    O398    O    0.80083   0.77735   0.51103   1.000
    O399    O    0.76042   0.67400   0.52654   1.000
    O400    O    0.88269   0.80882   0.51894   1.000
    O401    O    0.38436   0.80914   0.51923   1.000
    O402    O    0.16626   0.97129   0.51688   1.000
    O403    O    0.10614   0.02347   0.52012   1.000
    O404    O    0.66608   0.97193   0.51692   1.000
    O405    O    0.60662   0.02467   0.52039   1.000
    O406    O    0.66150   0.89796   0.52721   1.000
    O407    O    0.16243   0.89729   0.52723   1.000
    O408    O    0.96901   0.75073   0.54288   1.000
    O409    O    0.47052   0.75064   0.54292   1.000
    O410    O    0.74201   0.53065   0.55398   1.000
    O411    O    0.74474   0.62762   0.59290   1.000
    O412    O    0.24217   0.53092   0.55382   1.000
    O413    O    0.24433   0.62787   0.59288   1.000
    O414    O    0.45811   0.63922   0.56310   1.000
    O415    O    0.54499   0.71166   0.60294   1.000
    O416    O    0.95747   0.63955   0.56312   1.000
    O417    O    0.04441   0.71360   0.60264   1.000
    O418    O    0.19770   0.43903   0.58151   1.000
    O419    O    0.69815   0.43885   0.58179   1.000
    O420    O    0.91450   0.56842   0.58690   1.000
    O421    O    0.41446   0.56849   0.58718   1.000
    O422    O    0.11445   0.42701   0.59392   1.000
    O423    O    0.61477   0.42669   0.59410   1.000
    O424    O    0.18362   0.39236   0.62896   1.000
    O425    O    0.68399   0.39230   0.62924   1.000
    O426    O    0.20692   0.68029   0.65407   1.000
    O427    O    0.70803   0.67942   0.65432   1.000
    O428    O    0.13069   0.72091   0.65542   1.000
    O429    O    0.63087   0.71844   0.65606   1.000
    O430    O    0.33632   0.39005   0.66884   1.000
    O431    O    0.83649   0.39087   0.66938   1.000
    O432    O    0.25683   0.36562   0.67004   1.000
    O433    O    0.16997   0.33435   0.67483   1.000
    O434    O    0.75716   0.36596   0.67047   1.000
    O435    O    0.67048   0.33420   0.67511   1.000
    O436    O    0.19829   0.73572   0.69744   1.000
    O437    O    0.69866   0.73439   0.69784   1.000
    O438    O    0.09512   0.30340   0.68204   1.000
    O439    O    0.59580   0.30283   0.68220   1.000
    O440    O    0.32874   0.34272   0.70983   1.000
    O441    O    0.82911   0.34340   0.71035   1.000
    O442    O    0.15523   0.27925   0.71904   1.000
    O443    O    0.65598   0.27893   0.71926   1.000
    O444    O    0.35087   0.73319   0.73952   1.000
    O445    O    0.85097   0.73184   0.74028   1.000
    O446    O    0.27184   0.75848   0.74037   1.000
    O447    O    0.18511   0.79013   0.74481   1.000
    O448    O    0.77200   0.75734   0.74084   1.000
    O449    O    0.68533   0.78928   0.74499   1.000
    O450    O    0.38831   0.32031   0.74772   1.000
    O451    O    0.31376   0.28859   0.75444   1.000
    O452    O    0.88872   0.32124   0.74829   1.000
    O453    O    0.81437   0.28907   0.75487   1.000
    O454    O    0.61078   0.82083   0.75142   1.000
    O455    O    0.11052   0.82140   0.75151   1.000
    O456    O    0.22712   0.25639   0.75886   1.000
    O457    O    0.14815   0.23061   0.75960   1.000
    O458    O    0.72792   0.25637   0.75914   1.000
    O459    O    0.64912   0.23014   0.75977   1.000
    O460    O    0.34367   0.78132   0.78022   1.000
    O461    O    0.84373   0.78035   0.78073   1.000
    O462    O    0.16998   0.84366   0.78951   1.000
    O463    O    0.67018   0.84331   0.78940   1.000
    O464    O    0.30061   0.23376   0.80187   1.000
    O465    O    0.80150   0.23395   0.80216   1.000
    O466    O    0.40370   0.80542   0.81729   1.000
    O467    O    0.32874   0.83573   0.82459   1.000
    O468    O    0.90367   0.80458   0.81781   1.000
    O469    O    0.82877   0.83524   0.82481   1.000
    O470    O    0.74189   0.86626   0.82933   1.000
    O471    O    0.66245   0.89058   0.83025   1.000
    O472    O    0.24177   0.86642   0.82945   1.000
    O473    O    0.16226   0.89043   0.83068   1.000
    O474    O    0.36820   0.21885   0.84393   1.000
    O475    O    0.29180   0.17823   0.84536   1.000
    O476    O    0.86920   0.21909   0.84417   1.000
    O477    O    0.79295   0.17823   0.84556   1.000
    O478    O    0.31485   0.89284   0.87070   1.000
    O479    O    0.81486   0.89279   0.87068   1.000
    O480    O    0.45430   0.21180   0.89689   1.000
    O481    O    0.95543   0.21198   0.89705   1.000
    O482    O    0.25495   0.12614   0.90681   1.000
    O483    O    0.75531   0.12611   0.90685   1.000
    O484    O    0.08468   0.06718   0.91268   1.000
    O485    O    0.58406   0.06723   0.91281   1.000
    O486    O    0.88381   0.92766   0.90578   1.000
    O487    O    0.80041   0.93848   0.91831   1.000
    O488    O    0.38384   0.92756   0.90583   1.000
    O489    O    0.30056   0.93833   0.91846   1.000
    O490    O    0.96637   0.96689   0.95567   1.000
    O491    O    0.46581   0.96686   0.95570   1.000
    O492    O    0.04213   0.13813   0.93654   1.000
    O493    O    0.54118   0.13823   0.93655   1.000
    O494    O    0.75649   0.02963   0.94603   1.000
    O495    O    0.25692   0.02950   0.94619   1.000
    O496    O    0.52938   0.24927   0.95692   1.000
    O497    O    0.44687   0.15626   0.96599   1.000
    O498    O    0.03079   0.24926   0.95694   1.000
    O499    O    0.94771   0.15632   0.96584   1.000
    O500    O    0.73817   0.17340   0.97231   1.000
    O501    O    0.23928   0.17346   0.97233   1.000
    O502    O    0.33841   0.39910   0.97228   1.000
    O503    O    0.83708   0.39889   0.97256   1.000
    O504    O    0.39302   0.52602   0.97992   1.000
    O505    O    0.89174   0.52582   0.98029   1.000
    O506    O    0.11719   0.30785   0.98042   1.000
    O507    O    0.61569   0.30780   0.98050   1.000
    O508    O    0.33358   0.47288   0.98291   1.000
    O509    O    0.26229   0.41791   0.98711   1.000
    O510    O    0.83228   0.47268   0.98325   1.000
    O511    O    0.76098   0.41770   0.98743   1.000
    O512    O    0.19927   0.27710   0.98735   1.000
    O513    O    0.18906   0.35971   0.98991   1.000
    O514    O    0.69771   0.27694   0.98743   1.000
    O515    O    0.68767   0.35954   0.99013   1.000
    O516    O    0.17565   0.61266   0.52555   1.000
    O517    O    0.04931   0.56061   0.50344   1.000
    O518    O    0.67502   0.61139   0.52553   1.000
    O519    O    0.54824   0.55842   0.50353   1.000
    O520    O    0.33114   0.59436   0.55481   1.000
    O521    O    0.45393   0.54124   0.53280   1.000
    O522    O    0.83074   0.59429   0.55470   1.000
    O523    O    0.95483   0.54241   0.53259   1.000
    O524    O    0.32393   0.11123   0.97449   1.000
    O525    O    0.44955   0.05936   0.99664   1.000
    O526    O    0.82382   0.11131   0.97426   1.000
    O527    O    0.95030   0.05940   0.99642   1.000
    O528    O    0.16854   0.09309   0.94499   1.000
    O529    O    0.04473   0.04121   0.96712   1.000
    O530    O    0.66795   0.09323   0.94501   1.000
    O531    O    0.54385   0.04132   0.96719   1.000
    O532    O    0.32225   0.38729   0.47450   1.000
    O533    O    0.44859   0.43930   0.49669   1.000
    O534    O    0.82286   0.38856   0.47455   1.000
    O535    O    0.94963   0.44148   0.49660   1.000
    O536    O    0.16675   0.40558   0.44525   1.000
    O537    O    0.04396   0.45866   0.46733   1.000
    O538    O    0.66717   0.40570   0.44538   1.000
    O539    O    0.54308   0.45755   0.46754   1.000
    O540    O    0.17575   0.88856   0.02567   1.000
    O541    O    0.04937   0.94053   0.00346   1.000
    O542    O    0.67539   0.88903   0.02543   1.000
    O543    O    0.54883   0.94081   0.00329   1.000
    O544    O    0.33141   0.90665   0.05505   1.000
    O545    O    0.45446   0.95863   0.03286   1.000
    O546    O    0.83089   0.90698   0.05481   1.000
    O547    O    0.95490   0.95875   0.03265   1.000
loop_
    _geom_bond_atom_site_label_1
    _geom_bond_atom_site_label_2
    _geom_bond_distance
    _geom_bond_site_symmetry_2
    _ccdc_geom_bond_type
    C150   O244      0.74917      .   S
    C148   O244      0.74917      .   S
    C150   O245      0.70175      .   S
    C152   O245      0.70175      .   S
    C150   O246      0.70126  1_554   S
    C154   O246      0.70126      .   S
    C151   O247      0.74926      .   S
    C149   O247      0.74926      .   S
    C151   O248      0.70168      .   S
    C153   O248      0.70168      .   S
    C151   O249      0.70136  1_554   S
    C155   O249      0.70136      .   S
    C241   O250      0.99920      .   S
    C9     O250      0.99920      .   S
    C241   O251      0.48736  1_554   S
    C81    O251      0.48736      .   S
    C240   O252      1.00098      .   S
    C8     O252      1.00098      .   S
    C240   O253      0.48789  1_554   S
    C80    O253      0.48789      .   S
    C220   O254      0.63162      .   S
    C148   O254      0.63162      .   S
    C220   O255      1.05733      .   S
    C14    O255      1.05733      .   S
    C221   O256      0.63172      .   S
    C149   O256      0.63172      .   S
    C221   O257      1.05949      .   S
    C15    O257      1.05949      .   S
    C106   O258      0.69580      .   S
    C152   O258      0.69580      .   S
    C106   O259      0.54391      .   S
    C30    O259      0.54391      .   S
    C106   O260      0.70137      .   S
    C102   O260      0.70137  1_556   S
    C148   O261      0.64564      .   S
    C222   O261      0.64564      .   S
    C149   O262      0.64560      .   S
    C223   O262      0.64560      .   S
    C107   O263      0.69576      .   S
    C153   O263      0.69576      .   S
    C107   O264      0.54389      .   S
    C31    O264      0.54389      .   S
    C107   O265      0.70126      .   S
    C103   O265      0.70126  1_556   S
    C152   O266      0.54401      .   S
    C60    O266      0.54401      .   S
    C153   O267      0.54396      .   S
    C61    O267      0.54396      .   S
    C223   O268      0.97106      .   S
    C8     O268      0.97106  1_455   S
    C222   O269      0.97128      .   S
    C9     O269      0.97128      .   S
    C49    O270      0.48788      .   S
    C209   O270      0.48788  1_556   S
    C48    O271      0.48783      .   S
    C208   O271      0.48783  1_556   S
    C15    O272      1.08452      .   S
    C229   O272      1.08452  1_545   S
    C15    O273      1.04694      .   S
    C219   O273      1.04694      .   S
    C14    O274      1.08557      .   S
    C228   O274      1.08557  1_545   S
    C14    O275      1.04831      .   S
    C218   O275      1.04831      .   S
    C9     O276      1.00786      .   S
    C242   O276      1.00786      .   S
    C9     O277      0.97431      .   S
    C217   O277      0.97431      .   S
    C8     O278      1.00477  1_455   S
    C243   O278      1.00477      .   S
    C8     O279      0.97628      .   S
    C216   O279      0.97628      .   S
    C228   O280      0.64519      .   S
    C156   O280      0.64519      .   S
    C229   O281      0.64484      .   S
    C157   O281      0.64484      .   S
    C243   O282      0.48763      .   S
    C83    O282      0.48763      .   S
    C242   O283      0.48758      .   S
    C82    O283      0.48758      .   S
    C231   O284      0.63484      .   S
    C157   O284      0.63484      .   S
    C231   O285      1.06706      .   S
    C19    O285      1.06706  1_566   S
    C230   O286      0.63484      .   S
    C156   O286      0.63484      .   S
    C230   O287      1.06508      .   S
    C18    O287      1.06508  1_666   S
    C157   O288      0.74830      .   S
    C159   O288      0.74830      .   S
    C156   O289      0.74811      .   S
    C158   O289      0.74811      .   S
    C219   O290      0.63354      .   S
    C147   O290      0.63354      .   S
    C218   O291      0.63325      .   S
    C146   O291      0.63325      .   S
    C216   O292      0.64332      .   S
    C146   O292      0.64332      .   S
    C217   O293      0.64355      .   S
    C147   O293      0.64355      .   S
    C74    O294      0.54440      .   S
    C168   O294      0.54440      .   S
    C75    O295      0.54440      .   S
    C169   O295      0.54440      .   S
    C159   O296      0.70173      .   S
    C169   O296      0.70173      .   S
    C159   O297      0.70190      .   S
    C161   O297      0.70190      .   S
    C158   O298      0.70166      .   S
    C168   O298      0.70166      .   S
    C158   O299      0.70193      .   S
    C160   O299      0.70193      .   S
    C146   O300      0.75144      .   S
    C140   O300      0.75144      .   S
    C147   O301      0.75091      .   S
    C141   O301      0.75091      .   S
    C69    O302      0.54437      .   S
    C161   O302      0.54437      .   S
    C68    O303      0.54437      .   S
    C160   O303      0.54437      .   S
    C169   O304      0.69474      .   S
    C167   O304      0.69474      .   S
    C168   O305      0.69465      .   S
    C166   O305      0.69465      .   S
    C161   O306      0.69657      .   S
    C163   O306      0.69657      .   S
    C160   O307      0.69639      .   S
    C162   O307      0.69639      .   S
    C54    O308      0.54509      .   S
    C138   O308      0.54509      .   S
    C55    O309      0.54466      .   S
    C139   O309      0.54466      .   S
    C140   O310      0.70173      .   S
    C138   O310      0.70173      .   S
    C140   O311      0.70191      .   S
    C142   O311      0.70191      .   S
    C141   O312      0.70167      .   S
    C139   O312      0.70167      .   S
    C141   O313      0.70187      .   S
    C143   O313      0.70187      .   S
    C167   O314      0.54405      .   S
    C73    O314      0.54405      .   S
    C167   O315      0.70185      .   S
    C165   O315      0.70185      .   S
    C166   O316      0.54402      .   S
    C72    O316      0.54402      .   S
    C166   O317      0.70188      .   S
    C164   O317      0.70188      .   S
    C57    O318      0.54404      .   S
    C143   O318      0.54404      .   S
    C56    O319      0.54403      .   S
    C142   O319      0.54403      .   S
    C163   O320      0.70172      .   S
    C165   O320      0.70172      .   S
    C163   O321      0.54461      .   S
    C71    O321      0.54461      .   S
    C162   O322      0.70168      .   S
    C164   O322      0.70168      .   S
    C162   O323      0.54481      .   S
    C70    O323      0.54481      .   S
    C138   O324      0.69676      .   S
    C136   O324      0.69676      .   S
    C139   O325      0.69662      .   S
    C137   O325      0.69662      .   S
    C143   O326      0.69465      .   S
    C145   O326      0.69465      .   S
    C142   O327      0.69487      .   S
    C144   O327      0.69487      .   S
    C165   O328      0.75106      .   S
    C171   O328      0.75106      .   S
    C164   O329      0.75106      .   S
    C170   O329      0.75106      .   S
    C136   O330      0.54440      .   S
    C52    O330      0.54440      .   S
    C136   O331      0.70200      .   S
    C134   O331      0.70200      .   S
    C137   O332      0.54435      .   S
    C53    O332      0.54435      .   S
    C137   O333      0.70191      .   S
    C135   O333      0.70191      .   S
    C145   O334      0.70169      .   S
    C135   O334      0.70169      .   S
    C145   O335      0.54443      .   S
    C59    O335      0.54443      .   S
    C144   O336      0.70178      .   S
    C134   O336      0.70178      .   S
    C144   O337      0.54442      .   S
    C58    O337      0.54442      .   S
    C171   O338      0.64342      .   S
    C233   O338      0.64342      .   S
    C171   O339      0.63318      .   S
    C235   O339      0.63318      .   S
    C170   O340      0.64335      .   S
    C232   O340      0.64335      .   S
    C170   O341      0.63302      .   S
    C234   O341      0.63302      .   S
    C134   O342      0.74854      .   S
    C132   O342      0.74854      .   S
    C135   O343      0.74832      .   S
    C133   O343      0.74832      .   S
    C233   O344      0.97483      .   S
    C13    O344      0.97483      .   S
    C232   O345      0.97529      .   S
    C12    O345      0.97529      .   S
    C235   O346      1.04736      .   S
    C11    O346      1.04736      .   S
    C234   O347      1.04932      .   S
    C10    O347      1.04932      .   S
    C66    O348      0.48768      .   S
    C226   O348      0.48768      .   S
    C67    O349      0.48753      .   S
    C227   O349      0.48753      .   S
    C133   O350      0.63528      .   S
    C215   O350      0.63528      .   S
    C133   O351      0.64456      .   S
    C213   O351      0.64456      .   S
    C132   O352      0.63514      .   S
    C214   O352      0.63514      .   S
    C132   O353      0.64448      .   S
    C212   O353      0.64448      .   S
    C214   O354      1.06739      .   S
    C17    O354      1.06739      .   S
    C215   O355      1.06369      .   S
    C16    O355      1.06369      .   S
    C226   O356      1.00852      .   S
    C13    O356      1.00852  1_655   S
    C227   O357      1.00460      .   S
    C12    O357      1.00460      .   S
    C213   O358      1.08401      .   S
    C11    O358      1.08401      .   S
    C212   O359      1.08511      .   S
    C10    O359      1.08511      .   S
    C12    O360      0.97088      .   S
    C239   O360      0.97088      .   S
    C12    O361      1.00294      .   S
    C224   O361      1.00294      .   S
    C13    O362      0.97255  1_655   S
    C238   O362      0.97255      .   S
    C13    O363      1.00120      .   S
    C225   O363      1.00120      .   S
    C10    O364      1.05803      .   S
    C236   O364      1.05803      .   S
    C11    O365      1.05726      .   S
    C237   O365      1.05726      .   S
    C33    O366      0.48799      .   S
    C193   O366      0.48799      .   S
    C32    O367      0.48796      .   S
    C192   O367      0.48796      .   S
    C77    O368      0.54415      .   S
    C177   O368      0.54415      .   S
    C76    O369      0.54387      .   S
    C176   O369      0.54387      .   S
    C47    O370      0.54383      .   S
    C131   O370      0.54383      .   S
    C46    O371      0.54387      .   S
    C130   O371      0.54387      .   S
    C238   O372      0.64574      .   S
    C172   O372      0.64574      .   S
    C239   O373      0.64547      .   S
    C173   O373      0.64547      .   S
    C177   O374      0.69552      .   S
    C131   O374      0.69552  1_565   S
    C177   O375      0.70147      .   S
    C175   O375      0.70147      .   S
    C176   O376      0.69579      .   S
    C130   O376      0.69579  1_565   S
    C176   O377      0.70170      .   S
    C174   O377      0.70170      .   S
    C131   O378      0.70118      .   S
    C127   O378      0.70118      .   S
    C130   O379      0.70120      .   S
    C126   O379      0.70120      .   S
    C173   O380      0.63181      .   S
    C237   O380      0.63181      .   S
    C173   O381      0.74816      .   S
    C175   O381      0.74816      .   S
    C172   O382      0.63171      .   S
    C236   O382      0.63171      .   S
    C172   O383      0.74902      .   S
    C174   O383      0.74902      .   S
    C224   O384      0.48798      .   S
    C64    O384      0.48798      .   S
    C225   O385      0.48797      .   S
    C65    O385      0.48797      .   S
    C175   O386      0.70113      .   S
    C179   O386      0.70113      .   S
    C174   O387      0.70122      .   S
    C178   O387      0.70122      .   S
    C16    O388      1.06749  1_655   S
    C182   O388      1.06749      .   S
    C17    O389      1.06578      .   S
    C183   O389      1.06578      .   S
    C127   O390      0.74815      .   S
    C125   O390      0.74815      .   S
    C127   O391      0.70142      .   S
    C129   O391      0.70142      .   S
    C126   O392      0.74898      .   S
    C124   O392      0.74898      .   S
    C126   O393      0.70169      .   S
    C128   O393      0.70169      .   S
    C193   O394      1.00126      .   S
    C5     O394      1.00126      .   S
    C192   O395      1.00298      .   S
    C4     O395      1.00298      .   S
    C204   O396      0.63172      .   S
    C124   O396      0.63172      .   S
    C204   O397      1.05783      .   S
    C2     O397      1.05783      .   S
    C205   O398      0.63184      .   S
    C125   O398      0.63184      .   S
    C205   O399      1.05731      .   S
    C3     O399      1.05731      .   S
    C125   O400      0.64546      .   S
    C207   O400      0.64546      .   S
    C124   O401      0.64576      .   S
    C206   O401      0.64576      .   S
    C178   O402      0.69580  1_545   S
    C128   O402      0.69580      .   S
    C178   O403      0.54386      .   S
    C78    O403      0.54386      .   S
    C179   O404      0.69549  1_545   S
    C129   O404      0.69549      .   S
    C179   O405      0.54382      .   S
    C79    O405      0.54382      .   S
    C129   O406      0.54388      .   S
    C45    O406      0.54388      .   S
    C128   O407      0.54390      .   S
    C44    O407      0.54390      .   S
    C207   O408      0.97089      .   S
    C4     O408      0.97089  1_455   S
    C206   O409      0.97249      .   S
    C5     O409      0.97249      .   S
    C3     O410      1.08365      .   S
    C181   O410      1.08365      .   S
    C3     O411      1.04715      .   S
    C203   O411      1.04715      .   S
    C2     O412      1.08495      .   S
    C180   O412      1.08495      .   S
    C2     O413      1.04914      .   S
    C202   O413      1.04914      .   S
    C5     O414      1.00852      .   S
    C194   O414      1.00852      .   S
    C5     O415      0.97533      .   S
    C201   O415      0.97533      .   S
    C4     O416      1.00436  1_455   S
    C195   O416      1.00436      .   S
    C4     O417      0.97586      .   S
    C200   O417      0.97586      .   S
    C180   O418      0.64449      .   S
    C84    O418      0.64449      .   S
    C181   O419      0.64462      .   S
    C85    O419      0.64462      .   S
    C195   O420      0.48763      .   S
    C35    O420      0.48763      .   S
    C194   O421      0.48761      .   S
    C34    O421      0.48761      .   S
    C182   O422      0.63509      .   S
    C84    O422      0.63509      .   S
    C183   O423      0.63527      .   S
    C85    O423      0.63527      .   S
    C84    O424      0.74861      .   S
    C86    O424      0.74861      .   S
    C85    O425      0.74878      .   S
    C87    O425      0.74878      .   S
    C202   O426      0.63311      .   S
    C122   O426      0.63311      .   S
    C203   O427      0.63317      .   S
    C123   O427      0.63317      .   S
    C200   O428      0.64339      .   S
    C122   O428      0.64339      .   S
    C201   O429      0.64343      .   S
    C123   O429      0.64343      .   S
    C26    O430      0.54441      .   S
    C96    O430      0.54441      .   S
    C27    O431      0.54471      .   S
    C97    O431      0.54471      .   S
    C86    O432      0.70178      .   S
    C96    O432      0.70178      .   S
    C86    O433      0.70196      .   S
    C88    O433      0.70196      .   S
    C87    O434      0.70177      .   S
    C97    O434      0.70177      .   S
    C87    O435      0.70192      .   S
    C89    O435      0.70192      .   S
    C122   O436      0.75113      .   S
    C116   O436      0.75113      .   S
    C123   O437      0.75118      .   S
    C117   O437      0.75118      .   S
    C20    O438      0.54438      .   S
    C88    O438      0.54438      .   S
    C21    O439      0.54439      .   S
    C89    O439      0.54439      .   S
    C96    O440      0.69485      .   S
    C94    O440      0.69485      .   S
    C97    O441      0.69481      .   S
    C95    O441      0.69481      .   S
    C88    O442      0.69666      .   S
    C90    O442      0.69666      .   S
    C89    O443      0.69678      .   S
    C91    O443      0.69678      .   S
    C38    O444      0.54478      .   S
    C114   O444      0.54478      .   S
    C39    O445      0.54463      .   S
    C115   O445      0.54463      .   S
    C116   O446      0.70166      .   S
    C114   O446      0.70166      .   S
    C116   O447      0.70145      .   S
    C118   O447      0.70145      .   S
    C117   O448      0.70175      .   S
    C115   O448      0.70175      .   S
    C117   O449      0.70184      .   S
    C119   O449      0.70184      .   S
    C94    O450      0.54406      .   S
    C24    O450      0.54406      .   S
    C94    O451      0.70195      .   S
    C92    O451      0.70195      .   S
    C95    O452      0.54405      .   S
    C25    O452      0.54405      .   S
    C95    O453      0.70184      .   S
    C93    O453      0.70184      .   S
    C41    O454      0.54403      .   S
    C119   O454      0.54403      .   S
    C40    O455      0.54381      .   S
    C118   O455      0.54381      .   S
    C90    O456      0.70176      .   S
    C92    O456      0.70176      .   S
    C90    O457      0.54466      .   S
    C22    O457      0.54466      .   S
    C91    O458      0.70173      .   S
    C93    O458      0.70173      .   S
    C91    O459      0.54464      .   S
    C23    O459      0.54464      .   S
    C114   O460      0.69660      .   S
    C112   O460      0.69660      .   S
    C115   O461      0.69661      .   S
    C113   O461      0.69661      .   S
    C118   O462      0.69525      .   S
    C120   O462      0.69525      .   S
    C119   O463      0.69482      .   S
    C121   O463      0.69482      .   S
    C92    O464      0.75130      .   S
    C98    O464      0.75130      .   S
    C93    O465      0.75139      .   S
    C99    O465      0.75139      .   S
    C112   O466      0.54438      .   S
    C36    O466      0.54438      .   S
    C112   O467      0.70192      .   S
    C110   O467      0.70192      .   S
    C113   O468      0.54438      .   S
    C37    O468      0.54438      .   S
    C113   O469      0.70186      .   S
    C111   O469      0.70186      .   S
    C121   O470      0.70174      .   S
    C111   O470      0.70174      .   S
    C121   O471      0.54435      .   S
    C43    O471      0.54435      .   S
    C120   O472      0.70172      .   S
    C110   O472      0.70172      .   S
    C120   O473      0.54442      .   S
    C42    O473      0.54442      .   S
    C98    O474      0.64341      .   S
    C184   O474      0.64341      .   S
    C98    O475      0.63333      .   S
    C186   O475      0.63333      .   S
    C99    O476      0.64337      .   S
    C185   O476      0.64337      .   S
    C99    O477      0.63317      .   S
    C187   O477      0.63317      .   S
    C110   O478      0.74797      .   S
    C108   O478      0.74797      .   S
    C111   O479      0.74851      .   S
    C109   O479      0.74851      .   S
    C184   O480      0.97592      .   S
    C0     O480      0.97592      .   S
    C185   O481      0.97634      .   S
    C1     O481      0.97634      .   S
    C186   O482      1.04797      .   S
    C6     O482      1.04797      .   S
    C187   O483      1.04736      .   S
    C7     O483      1.04736      .   S
    C50    O484      0.48690      .   S
    C210   O484      0.48690      .   S
    C51    O485      0.48760      .   S
    C211   O485      0.48760      .   S
    C109   O486      0.63492      .   S
    C199   O486      0.63492      .   S
    C109   O487      0.64485      .   S
    C197   O487      0.64485      .   S
    C108   O488      0.63493      .   S
    C198   O488      0.63493      .   S
    C108   O489      0.64465      .   S
    C196   O489      0.64465      .   S
    C199   O490      1.06645      .   S
    C18    O490      1.06645      .   S
    C198   O491      1.06437      .   S
    C19    O491      1.06437      .   S
    C210   O492      1.00465      .   S
    C1     O492      1.00465  1_655   S
    C211   O493      1.00596      .   S
    C0     O493      1.00596      .   S
    C197   O494      1.08452  1_565   S
    C7     O494      1.08452      .   S
    C196   O495      1.08473  1_565   S
    C6     O495      1.08473      .   S
    C0     O496      0.97127      .   S
    C191   O496      0.97127      .   S
    C0     O497      1.00032      .   S
    C208   O497      1.00032      .   S
    C1     O498      0.97112  1_655   S
    C190   O498      0.97112      .   S
    C1     O499      1.00105      .   S
    C209   O499      1.00105      .   S
    C7     O500      1.05808      .   S
    C189   O500      1.05808      .   S
    C6     O501      1.05860      .   S
    C188   O501      1.05860      .   S
    C28    O502      0.54395      .   S
    C104   O502      0.54395      .   S
    C29    O503      0.54402      .   S
    C105   O503      0.54402      .   S
    C62    O504      0.54386      .   S
    C154   O504      0.54386      .   S
    C63    O505      0.54393      .   S
    C155   O505      0.54393      .   S
    C190   O506      0.64551      .   S
    C100   O506      0.64551      .   S
    C191   O507      0.64567      .   S
    C101   O507      0.64567      .   S
    C104   O508      0.69573      .   S
    C154   O508      0.69573      .   S
    C104   O509      0.70168      .   S
    C102   O509      0.70168      .   S
    C105   O510      0.69581      .   S
    C155   O510      0.69581      .   S
    C105   O511      0.70173      .   S
    C103   O511      0.70173      .   S
    C100   O512      0.63177      .   S
    C188   O512      0.63177      .   S
    C100   O513      0.74920      .   S
    C102   O513      0.74920      .   S
    C101   O514      0.63161      .   S
    C189   O514      0.63161      .   S
    C101   O515      0.74921      .   S
    C103   O515      0.74921      .   S
    C192   O516      1.02860      .   S
    C2     O516      1.02860      .   S
    C192   O517      1.05806      .   S
    C16    O517      1.05806  1_655   S
    C193   O518      1.02452      .   S
    C3     O518      1.02452      .   S
    C193   O519      1.06277      .   S
    C17    O519      1.06277      .   S
    C194   O520      1.02377      .   S
    C2     O520      1.02377      .   S
    C194   O521      1.08972      .   S
    C17    O521      1.08972      .   S
    C195   O522      1.02873      .   S
    C3     O522      1.02873      .   S
    C195   O523      1.08822      .   S
    C16    O523      1.08822      .   S
    C208   O524      1.02441      .   S
    C6     O524      1.02441      .   S
    C208   O525      1.05497      .   S
    C19    O525      1.05497  1_565   S
    C209   O526      1.02911      .   S
    C7     O526      1.02911      .   S
    C209   O527      1.05866      .   S
    C18    O527      1.05866  1_565   S
    C210   O528      1.02705      .   S
    C6     O528      1.02705      .   S
    C210   O529      1.08564      .   S
    C18    O529      1.08564  1_665   S
    C211   O530      1.02679      .   S
    C7     O530      1.02679      .   S
    C211   O531      1.08798      .   S
    C19    O531      1.08798  1_565   S
    C224   O532      1.02917      .   S
    C10    O532      1.02917      .   S
    C224   O533      1.05754      .   S
    C17    O533      1.05754      .   S
    C225   O534      1.02483      .   S
    C11    O534      1.02483      .   S
    C225   O535      1.06245      .   S
    C16    O535      1.06245      .   S
    C226   O536      1.02346      .   S
    C10    O536      1.02346      .   S
    C226   O537      1.08981      .   S
    C16    O537      1.08981  1_655   S
    C227   O538      1.02830      .   S
    C11    O538      1.02830      .   S
    C227   O539      1.08798      .   S
    C17    O539      1.08798      .   S
    C240   O540      1.02888      .   S
    C14    O540      1.02888      .   S
    C240   O541      1.05827      .   S
    C18    O541      1.05827  1_656   S
    C241   O542      1.02465      .   S
    C15    O542      1.02465      .   S
    C241   O543      1.05983      .   S
    C19    O543      1.05983  1_556   S
    C242   O544      1.02482      .   S
    C14    O544      1.02482      .   S
    C242   O545      1.08312      .   S
    C19    O545      1.08312  1_556   S
    C243   O546      1.02745      .   S
    C15    O546      1.02745      .   S
    C243   O547      1.08507      .   S
    C18    O547      1.08507  1_556   S
