# CIF file generated by openbabel 2.4.90, see http://openbabel.sf.net
data_I
_chemical_name_common ''
_cell_length_a 12.819
_cell_length_b 14.257
_cell_length_c 20.172
_cell_angle_alpha 89.872
_cell_angle_beta 95.078
_cell_angle_gamma 90.126
_space_group_name_H-M_alt 'P 1'
_space_group_name_Hall 'P 1'
loop_
    _symmetry_equiv_pos_as_xyz
    x,y,z
loop_
    _atom_site_label
    _atom_site_type_symbol
    _atom_site_fract_x
    _atom_site_fract_y
    _atom_site_fract_z
    _atom_site_occupancy
    Zr0     Zr   0.49338   0.19380   0.93868   1.000
    Zr1     Zr   0.99468   0.19382   0.93877   1.000
    Zr2     Zr   0.25250   0.60511   0.54419   1.000
    Zr3     Zr   0.75163   0.60479   0.54418   1.000
    Zr4     Zr   0.00510   0.69531   0.56102   1.000
    Zr5     Zr   0.50643   0.69483   0.56077   1.000
    Zr6     Zr   0.24750   0.10372   0.95568   1.000
    Zr7     Zr   0.74692   0.10380   0.95560   1.000
    Zr8     Zr   0.00498   0.80620   0.06121   1.000
    Zr9     Zr   0.50641   0.80627   0.06118   1.000
    Zr10    Zr   0.24539   0.39486   0.45580   1.000
    Zr11    Zr   0.74625   0.39517   0.45585   1.000
    Zr12    Zr   0.49279   0.30470   0.43903   1.000
    Zr13    Zr   0.99142   0.30513   0.43932   1.000
    Zr14    Zr   0.25263   0.89603   0.04436   1.000
    Zr15    Zr   0.75186   0.89642   0.04425   1.000
    Zr16    Zr   0.99980   0.50102   0.49996   1.000
    Zr17    Zr   0.49807   0.49886   0.50017   1.000
    Zr18    Zr   0.99987   0.99997   0.99993   1.000
    Zr19    Zr   0.49872   0.99999   0.99997   1.000
    N20     N    0.74894   0.99995   0.49989   1.000
    O21     O    0.75468   0.83697   0.51321   1.000
    O22     O    0.85898   0.87534   0.52138   1.000
    O23     O    0.74320   0.16294   0.48666   1.000
    O24     O    0.63890   0.12460   0.47851   1.000
    N25     N    0.24896   0.99999   0.50007   1.000
    O26     O    0.25537   0.83713   0.51329   1.000
    O27     O    0.35974   0.87531   0.52149   1.000
    O28     O    0.24253   0.16284   0.48679   1.000
    O29     O    0.13815   0.12465   0.47861   1.000
    N30     N    0.75644   0.81364   0.78444   1.000
    O31     O    0.75059   0.72063   0.68867   1.000
    O32     O    0.75647   0.92163   0.86524   1.000
    O33     O    0.65072   0.76265   0.69369   1.000
    O34     O    0.86141   0.89026   0.87005   1.000
    N35     N    0.25626   0.81435   0.78426   1.000
    O36     O    0.36103   0.89060   0.86998   1.000
    O37     O    0.25659   0.92192   0.86523   1.000
    O38     O    0.15033   0.76397   0.69345   1.000
    O39     O    0.25029   0.72111   0.68857   1.000
    N40     N    0.74307   0.31312   0.71548   1.000
    O41     O    0.74919   0.21961   0.81116   1.000
    O42     O    0.74254   0.42188   0.63473   1.000
    O43     O    0.63746   0.38932   0.62988   1.000
    O44     O    0.84925   0.26255   0.80626   1.000
    N45     N    0.25587   0.68680   0.28473   1.000
    O46     O    0.15001   0.73744   0.19385   1.000
    O47     O    0.25010   0.78026   0.18895   1.000
    O48     O    0.25581   0.57792   0.36544   1.000
    O49     O    0.36063   0.60992   0.37037   1.000
    N50     N    0.75624   0.68726   0.28478   1.000
    O51     O    0.65070   0.73800   0.19394   1.000
    O52     O    0.75043   0.78060   0.18893   1.000
    O53     O    0.75611   0.57830   0.36543   1.000
    O54     O    0.86123   0.61080   0.37035   1.000
    N55     N    0.25058   0.50009   0.99986   1.000
    O56     O    0.25603   0.66330   0.01375   1.000
    O57     O    0.36049   0.62543   0.02144   1.000
    O58     O    0.24493   0.33677   0.98609   1.000
    O59     O    0.14068   0.37467   0.97840   1.000
    N60     N    0.74920   0.49991   0.00012   1.000
    O61     O    0.75475   0.66327   0.01388   1.000
    O62     O    0.74368   0.33666   0.98621   1.000
    O63     O    0.63929   0.37459   0.97852   1.000
    O64     O    0.85906   0.62533   0.02157   1.000
    N65     N    0.24244   0.31305   0.71517   1.000
    O66     O    0.24870   0.21959   0.81099   1.000
    O67     O    0.24231   0.42198   0.63449   1.000
    O68     O    0.13751   0.38995   0.62964   1.000
    O69     O    0.34837   0.26242   0.80603   1.000
    N70     N    0.74215   0.18670   0.21537   1.000
    O71     O    0.63733   0.10989   0.12978   1.000
    O72     O    0.84753   0.23753   0.30626   1.000
    O73     O    0.74764   0.27953   0.31124   1.000
    O74     O    0.74233   0.07866   0.13460   1.000
    N75     N    0.24237   0.18573   0.21561   1.000
    O76     O    0.34797   0.23612   0.30650   1.000
    O77     O    0.24796   0.27891   0.31136   1.000
    O78     O    0.24257   0.07800   0.13470   1.000
    O79     O    0.13772   0.10938   0.12991   1.000
    C80     C    0.39867   0.13117   0.01569   1.000
    O81     O    0.42277   0.14372   0.99084   1.000
    O82     O    0.36130   0.12120   0.99509   1.000
    O83     O    0.42411   0.09527   0.00616   1.000
    C84     C    0.89910   0.13112   0.01534   1.000
    O85     O    0.92340   0.14372   0.99059   1.000
    O86     O    0.86146   0.12121   0.99480   1.000
    O87     O    0.92470   0.09526   0.00588   1.000
    C88     C    0.08468   0.06718   0.91268   1.000
    O89     O    0.06341   0.10266   0.92461   1.000
    O90     O    0.12661   0.08013   0.92884   1.000
    O91     O    0.06470   0.05420   0.93990   1.000
    C92     C    0.41519   0.93262   0.08737   1.000
    O93     O    0.43675   0.89720   0.07541   1.000
    O94     O    0.37330   0.91963   0.07121   1.000
    O95     O    0.43482   0.94562   0.06011   1.000
    C96     C    0.91482   0.93291   0.08699   1.000
    O97     O    0.93614   0.89739   0.07514   1.000
    O98     O    0.87286   0.91994   0.07090   1.000
    O99     O    0.93486   0.94583   0.05982   1.000
    C100    C    0.58406   0.06723   0.91281   1.000
    O101    O    0.56262   0.10273   0.92468   1.000
    O102    O    0.62600   0.08023   0.92891   1.000
    O103    O    0.56395   0.05427   0.94000   1.000
    C104    C    0.10054   0.86873   0.98457   1.000
    O105    O    0.07623   0.85619   0.00933   1.000
    O106    O    0.13815   0.87865   0.00512   1.000
    O107    O    0.07496   0.90463   0.99401   1.000
    C108    C    0.60062   0.86930   0.98421   1.000
    O109    O    0.57665   0.85663   0.00905   1.000
    O110    O    0.63801   0.87917   0.00482   1.000
    O111    O    0.57472   0.90506   0.99375   1.000
    C112    C    0.59993   0.63010   0.48434   1.000
    O113    O    0.57618   0.64325   0.50908   1.000
    O114    O    0.63748   0.62074   0.50494   1.000
    O115    O    0.57408   0.59426   0.49393   1.000
    C116    C    0.10044   0.63261   0.48446   1.000
    O117    O    0.13805   0.62264   0.50501   1.000
    O118    O    0.07487   0.59661   0.49395   1.000
    O119    O    0.07620   0.64519   0.50921   1.000
    C120    C    0.41446   0.56849   0.58718   1.000
    O121    O    0.43629   0.60386   0.57514   1.000
    O122    O    0.37280   0.58143   0.57099   1.000
    O123    O    0.43420   0.55486   0.55999   1.000
    C124    C    0.91450   0.56842   0.58690   1.000
    O125    O    0.93599   0.60398   0.57501   1.000
    O126    O    0.87262   0.58135   0.57080   1.000
    O127    O    0.93466   0.55541   0.55974   1.000
    C128    C    0.39744   0.36728   0.51564   1.000
    O129    O    0.42169   0.35475   0.49088   1.000
    O130    O    0.35984   0.37729   0.49507   1.000
    O131    O    0.42301   0.40329   0.50616   1.000
    C132    C    0.89790   0.36983   0.51578   1.000
    O133    O    0.92167   0.35668   0.49103   1.000
    O134    O    0.86038   0.37920   0.49516   1.000
    O135    O    0.92377   0.40566   0.50619   1.000
    C136    C    0.08339   0.43145   0.41294   1.000
    O137    O    0.06158   0.39608   0.42497   1.000
    O138    O    0.12507   0.41852   0.42909   1.000
    O139    O    0.06367   0.44506   0.44013   1.000
    C140    C    0.58340   0.43164   0.41325   1.000
    O141    O    0.56192   0.39605   0.42511   1.000
    O142    O    0.62528   0.41867   0.42931   1.000
    O143    O    0.56324   0.44460   0.44039   1.000
loop_
    _geom_bond_atom_site_label_1
    _geom_bond_atom_site_label_2
    _geom_bond_distance
    _geom_bond_site_symmetry_2
    _ccdc_geom_bond_type
    N20    O21       2.33905      .   S
    Zr3    O21       3.36811      .   S
    N20    O22       2.28761      .   S
    Zr4    O22       3.23773  1_455   S
    N20    O23       2.33902  1_565   S
    Zr11   O23       3.36812      .   S
    N20    O24       2.28773  1_565   S
    Zr12   O24       3.23779      .   S
    N25    O26       2.33733      .   S
    Zr2    O26       3.36546      .   S
    N25    O27       2.29391      .   S
    Zr5    O27       3.24555      .   S
    N25    O28       2.33745  1_565   S
    Zr10   O28       3.36571      .   S
    N25    O29       2.29403  1_565   S
    Zr13   O29       3.24586  1_655   S
    N30    O31       2.34128      .   S
    Zr3    O31       3.35435      .   S
    N30    O32       2.24452      .   S
    Zr7    O32       3.18507  1_545   S
    N30    O33       2.29767      .   S
    Zr5    O33       3.26663      .   S
    N30    O34       2.36151      .   S
    Zr18   O34       3.41227      .   S
    N35    O36       2.35937      .   S
    Zr19   O36       3.40732      .   S
    N35    O37       2.24266      .   S
    Zr6    O37       3.18136  1_545   S
    N35    O38       2.29706      .   S
    Zr4    O38       3.26866      .   S
    N35    O39       2.34174      .   S
    Zr2    O39       3.35478      .   S
    N40    O41       2.33904      .   S
    Zr7    O41       3.34805      .   S
    N40    O42       2.24606      .   S
    Zr3    O42       3.18821      .   S
    N40    O43       2.36199      .   S
    Zr17   O43       3.41235      .   S
    N40    O44       2.29854      .   S
    Zr1    O44       3.27027      .   S
    N45    O46       2.29815      .   S
    Zr8    O46       3.26985      .   S
    N45    O47       2.34037      .   S
    Zr14   O47       3.35069      .   S
    N45    O48       2.24701      .   S
    Zr10   O48       3.18947      .   S
    N45    O49       2.36148      .   S
    Zr17   O49       3.41233      .   S
    N50    O51       2.29593      .   S
    Zr9    O51       3.26491      .   S
    N50    O52       2.34061      .   S
    Zr15   O52       3.35149      .   S
    N50    O53       2.24697      .   S
    Zr11   O53       3.19017      .   S
    N50    O54       2.35923      .   S
    Zr16   O54       3.40767      .   S
    N55    O56       2.34446  1_556   S
    Zr14   O56       3.37748      .   S
    N55    O57       2.29167  1_556   S
    Zr9    O57       3.24228      .   S
    N55    O58       2.34566      .   S
    Zr6    O58       3.38088      .   S
    N55    O59       2.29200      .   S
    Zr1    O59       3.24246  1_655   S
    N60    O61       2.34626      .   S
    Zr15   O61       3.38223      .   S
    N60    O62       2.34519  1_554   S
    Zr7    O62       3.37919      .   S
    N60    O63       2.29151  1_554   S
    Zr0    O63       3.24193      .   S
    N60    O64       2.29179      .   S
    Zr8    O64       3.24207  1_455   S
    N65    O66       2.34074      .   S
    Zr6    O66       3.35174      .   S
    N65    O67       2.24698      .   S
    Zr2    O67       3.18926      .   S
    N65    O68       2.36127      .   S
    Zr16   O68       3.41217  1_655   S
    N65    O69       2.29818      .   S
    Zr0    O69       3.26931      .   S
    N70    O71       2.36152      .   S
    Zr19   O71       3.41346  1_566   S
    N70    O72       2.29669      .   S
    Zr13   O72       3.26530      .   S
    N70    O73       2.34169      .   S
    Zr11   O73       3.35538      .   S
    N70    O74       2.24482      .   S
    Zr15   O74       3.18572  1_565   S
    N75    O76       2.29610      .   S
    Zr12   O76       3.26713      .   S
    N75    O77       2.34235      .   S
    Zr10   O77       3.35589      .   S
    N75    O78       2.24389      .   S
    Zr14   O78       3.18318  1_565   S
    N75    O79       2.35905      .   S
    Zr18   O79       3.40821  1_666   S
    C80    O81       0.63675  1_554   S
    Zr0    O81       1.61193      .   S
    C80    O82       0.62212  1_554   S
    Zr6    O82       1.61748      .   S
    C80    O83       0.64623      .   S
    Zr19   O83       1.67430  1_566   S
    C84    O85       0.63683  1_554   S
    Zr1    O85       1.61269      .   S
    C84    O86       0.62372  1_554   S
    Zr7    O86       1.62378      .   S
    C84    O87       0.64637      .   S
    Zr18   O87       1.67795  1_566   S
    C88    O89       0.63316      .   S
    Zr1    O89       1.61186  1_655   S
    C88    O90       0.63086      .   S
    Zr6    O90       1.63023      .   S
    C88    O91       0.65233      .   S
    Zr18   O91       1.71055  1_665   S
    C92    O93       0.63445      .   S
    Zr9    O93       1.61629      .   S
    C92    O94       0.63064      .   S
    Zr14   O94       1.62777      .   S
    C92    O95       0.65101      .   S
    Zr19   O95       1.70654  1_556   S
    C96    O97       0.63319      .   S
    Zr8    O97       1.61190  1_455   S
    C96    O98       0.63074      .   S
    Zr15   O98       1.63036      .   S
    C96    O99       0.65159      .   S
    Zr18   O99       1.70906  1_556   S
    C100   O101      0.63390      .   S
    Zr0    O101      1.61387      .   S
    C100   O102      0.63074      .   S
    Zr7    O102      1.62974      .   S
    C100   O103      0.65246      .   S
    Zr19   O103      1.71282  1_565   S
    C104   O105      0.63683  1_556   S
    Zr8    O105      1.61263      .   S
    C104   O106      0.62356  1_556   S
    Zr14   O106      1.62338      .   S
    C104   O107      0.64657      .   S
    Zr18   O107      1.67781  1_655   S
    C108   O109      0.63623  1_556   S
    Zr9    O109      1.61035      .   S
    C108   O110      0.62206  1_556   S
    Zr15   O110      1.61771      .   S
    C108   O111      0.64776      .   S
    Zr19   O111      1.68074      .   S
    C112   O113      0.63605      .   S
    Zr5    O113      1.61196      .   S
    C112   O114      0.62183      .   S
    Zr3    O114      1.61723      .   S
    C112   O115      0.64686      .   S
    Zr17   O115      1.68239      .   S
    C116   O117      0.62374      .   S
    Zr2    O117      1.62331      .   S
    C116   O118      0.64607      .   S
    Zr16   O118      1.67702  1_655   S
    C116   O119      0.63729      .   S
    Zr4    O119      1.61503      .   S
    C120   O121      0.63433      .   S
    Zr5    O121      1.61676      .   S
    C120   O122      0.62860      .   S
    Zr2    O122      1.62440      .   S
    C120   O123      0.65411      .   S
    Zr17   O123      1.71637      .   S
    C124   O125      0.63327      .   S
    Zr4    O125      1.61161  1_455   S
    C124   O126      0.63006      .   S
    Zr3    O126      1.63078      .   S
    C124   O127      0.65339      .   S
    Zr16   O127      1.71412      .   S
    C128   O129      0.63735      .   S
    Zr12   O129      1.61506      .   S
    C128   O130      0.62398      .   S
    Zr10   O130      1.62412      .   S
    C128   O131      0.64612      .   S
    Zr17   O131      1.67659      .   S
    C132   O133      0.63623      .   S
    Zr13   O133      1.61211      .   S
    C132   O134      0.62188      .   S
    Zr11   O134      1.61758      .   S
    C132   O135      0.64683      .   S
    Zr16   O135      1.68206      .   S
    C136   O137      0.63423      .   S
    Zr13   O137      1.61663  1_655   S
    C136   O138      0.62850      .   S
    Zr10   O138      1.62398      .   S
    C136   O139      0.65398      .   S
    Zr16   O139      1.71630  1_655   S
    C140   O141      0.63327      .   S
    Zr12   O141      1.61186      .   S
    C140   O142      0.62995      .   S
    Zr11   O142      1.63027      .   S
    C140   O143      0.65302      .   S
    Zr17   O143      1.71348      .   S
