# CIF file generated by openbabel 2.4.90, see http://openbabel.sf.net
data_I
_chemical_name_common ''
_cell_length_a 16.401
_cell_length_b 16.425
_cell_length_c 16.079
_cell_angle_alpha 90.014
_cell_angle_beta 89.992
_cell_angle_gamma 119.912
_space_group_name_H-M_alt 'P 1'
_space_group_name_Hall 'P 1'
loop_
    _symmetry_equiv_pos_as_xyz
    x,y,z
loop_
    _atom_site_label
    _atom_site_type_symbol
    _atom_site_fract_x
    _atom_site_fract_y
    _atom_site_fract_z
    _atom_site_occupancy
    N0      N    1.00000   0.50001   0.00001   1.000
    N1      N    0.50000   0.00001   0.00001   1.000
    N2      N    0.50000   0.50001   0.50000   1.000
    N3      N    1.00000   0.50001   0.50001   1.000
    N4      N    0.50000   0.00001   0.50001   1.000
    N5      N    0.50000   0.50001   1.00000   1.000
    Zr6     Zr   0.33345   0.66717   0.25000   1.000
    Zr7     Zr   0.66655   0.33285   0.75001   1.000
    O8      O    0.22065   0.61071   0.17620   1.000
    O9      O    0.38985   0.61069   0.32381   1.000
    O10     O    0.22065   0.61073   0.32380   1.000
    O11     O    0.38974   0.77975   0.32380   1.000
    O12     O    0.38986   0.61069   0.17620   1.000
    O13     O    0.38976   0.77975   0.17620   1.000
    O14     O    0.77934   0.38932   0.82381   1.000
    O15     O    0.61014   0.38934   0.67620   1.000
    O16     O    0.77934   0.38930   0.67621   1.000
    O17     O    0.61025   0.22028   0.67621   1.000
    O18     O    0.61014   0.38933   0.82380   1.000
    O19     O    0.61023   0.22027   0.82381   1.000
loop_
    _geom_bond_atom_site_label_1
    _geom_bond_atom_site_label_2
    _geom_bond_distance
    _geom_bond_site_symmetry_2
    _ccdc_geom_bond_type
    Zr6    O8        1.99488      .   S
    N0     O8        4.22685  1_655   S
    Zr6    O9        1.99540      .   S
    N2     O9        4.22766      .   S
    Zr6    O10       1.99484      .   S
    N3     O10       4.22697  1_655   S
    Zr6    O11       1.99406      .   S
    N4     O11       4.22582  1_545   S
    Zr6    O12       1.99491      .   S
    N5     O12       4.22685  1_556   S
    Zr6    O13       1.99444      .   S
    N1     O13       4.22648  1_545   S
    N0     O14       4.22697  1_554   S
    Zr7    O14       1.99490      .   S
    N2     O15       4.22775      .   S
    Zr7    O15       1.99538      .   S
    N3     O16       4.22686      .   S
    Zr7    O16       1.99481      .   S
    N4     O17       4.22571      .   S
    Zr7    O17       1.99402      .   S
    N5     O18       4.22671      .   S
    Zr7    O18       1.99491      .   S
    Zr7    O19       1.99447      .   S
    N1     O19       4.22656  1_554   S
