# CIF file generated by openbabel 2.4.90, see http://openbabel.sf.net
data_I
_chemical_name_common ''
_cell_length_a 16.401
_cell_length_b 16.425
_cell_length_c 16.079
_cell_angle_alpha 90.014
_cell_angle_beta 89.992
_cell_angle_gamma 119.912
_space_group_name_H-M_alt 'P 1'
_space_group_name_Hall 'P 1'
loop_
    _symmetry_equiv_pos_as_xyz
    x,y,z
loop_
    _atom_site_label
    _atom_site_type_symbol
    _atom_site_fract_x
    _atom_site_fract_y
    _atom_site_fract_z
    _atom_site_occupancy
    C0      C    0.73544   0.47076   0.75000   1.000
    C1      C    0.73584   0.26386   0.75000   1.000
    C2      C    0.52838   0.26398   0.75000   1.000
    C3      C    0.26455   0.52927   0.25002   1.000
    C4      C    0.26416   0.73616   0.24996   1.000
    C5      C    0.47162   0.73604   0.25002   1.000
    C6      C    0.39857   0.33925   0.94328   1.000
    C7      C    0.93938   0.60027   0.94254   1.000
    C8      C    0.66086   0.05937   0.94286   1.000
    C9      C    0.60141   0.66078   0.44332   1.000
    C10     C    0.06087   0.40000   0.44241   1.000
    C11     C    0.33917   0.94092   0.44288   1.000
    C12     C    0.05896   0.66073   0.05677   1.000
    C13     C    0.33928   0.39960   0.05750   1.000
    C14     C    0.60104   0.94004   0.05710   1.000
    C15     C    0.94133   0.33932   0.55672   1.000
    C16     C    0.66071   0.60044   0.55756   1.000
    C17     C    0.39922   0.06029   0.55718   1.000
    C18     C    0.60143   0.66077   0.05675   1.000
    C19     C    0.06062   0.39975   0.05748   1.000
    C20     C    0.33914   0.94065   0.05716   1.000
    C21     C    0.39858   0.33925   0.55670   1.000
    C22     C    0.93912   0.60003   0.55760   1.000
    C23     C    0.66083   0.05911   0.55714   1.000
    C24     C    0.94104   0.33929   0.94325   1.000
    C25     C    0.66072   0.60042   0.94246   1.000
    C26     C    0.39896   0.05998   0.94292   1.000
    C27     C    0.05866   0.66071   0.44330   1.000
    C28     C    0.33929   0.39959   0.44246   1.000
    C29     C    0.60078   0.93974   0.44284   1.000
    C30     C    0.44226   0.40952   0.96853   1.000
    C31     C    0.96653   0.55711   0.96813   1.000
    C32     C    0.59055   0.03279   0.96829   1.000
    C33     C    0.55772   0.59051   0.46854   1.000
    C34     C    0.03361   0.44305   0.46806   1.000
    C35     C    0.40946   0.96739   0.46830   1.000
    C36     C    0.03255   0.59048   0.03151   1.000
    C37     C    0.40952   0.44284   0.03194   1.000
    C38     C    0.55751   0.96689   0.03169   1.000
    C39     C    0.96759   0.40956   0.53150   1.000
    C40     C    0.59046   0.55719   0.53195   1.000
    C41     C    0.44261   0.03328   0.53173   1.000
    C42     C    0.55773   0.59050   0.03149   1.000
    C43     C    0.03347   0.44292   0.03189   1.000
    C44     C    0.40945   0.96724   0.03173   1.000
    C45     C    0.44227   0.40952   0.53148   1.000
    C46     C    0.96639   0.55697   0.53196   1.000
    C47     C    0.59054   0.03264   0.53172   1.000
    C48     C    0.96744   0.40954   0.96851   1.000
    C49     C    0.59047   0.55719   0.96800   1.000
    C50     C    0.44249   0.03313   0.96833   1.000
    C51     C    0.03240   0.59047   0.46852   1.000
    C52     C    0.40953   0.44284   0.46800   1.000
    C53     C    0.55738   0.96674   0.46829   1.000
    C54     C    0.56815   0.43083   0.86840   1.000
    C55     C    0.53317   0.46626   0.93560   1.000
    C56     C    0.86273   0.43075   0.86846   1.000
    C57     C    0.93309   0.46620   0.93567   1.000
    C58     C    0.56866   0.13705   0.86843   1.000
    C59     C    0.53348   0.06679   0.93560   1.000
    C60     C    0.43181   0.56918   0.36845   1.000
    C61     C    0.46681   0.53377   0.43566   1.000
    C62     C    0.13724   0.56942   0.36841   1.000
    C63     C    0.06689   0.53393   0.43563   1.000
    C64     C    0.43117   0.86297   0.36840   1.000
    C65     C    0.46641   0.93323   0.43563   1.000
    C66     C    0.13727   0.56927   0.13156   1.000
    C67     C    0.06690   0.53383   0.06435   1.000
    C68     C    0.43185   0.56919   0.13160   1.000
    C69     C    0.46683   0.53376   0.06437   1.000
    C70     C    0.43134   0.86298   0.13159   1.000
    C71     C    0.46652   0.93322   0.06437   1.000
    C72     C    0.86275   0.43061   0.63161   1.000
    C73     C    0.93311   0.46610   0.56439   1.000
    C74     C    0.56818   0.43085   0.63150   1.000
    C75     C    0.53319   0.46626   0.56436   1.000
    C76     C    0.56883   0.13706   0.63160   1.000
    C77     C    0.53359   0.06681   0.56438   1.000
    C78     C    0.65183   0.48443   0.84038   1.000
    C79     C    0.83322   0.34720   0.84047   1.000
    C80     C    0.51477   0.16691   0.84042   1.000
    C81     C    0.34813   0.51556   0.34041   1.000
    C82     C    0.16674   0.65294   0.34044   1.000
    C83     C    0.48504   0.83305   0.34040   1.000
    C84     C    0.16739   0.51567   0.15960   1.000
    C85     C    0.48580   0.65273   0.15958   1.000
    C86     C    0.34762   0.83327   0.15958   1.000
    C87     C    0.83258   0.48421   0.65966   1.000
    C88     C    0.51425   0.34732   0.65956   1.000
    C89     C    0.65251   0.16672   0.65961   1.000
    C90     C    0.34817   0.51559   0.15965   1.000
    C91     C    0.16678   0.65282   0.15955   1.000
    C92     C    0.48523   0.83311   0.15960   1.000
    C93     C    0.65187   0.48446   0.65961   1.000
    C94     C    0.83325   0.34709   0.65958   1.000
    C95     C    0.51496   0.16698   0.65962   1.000
    C96     C    0.83260   0.48436   0.84041   1.000
    C97     C    0.51420   0.34729   0.84044   1.000
    C98     C    0.65238   0.16675   0.84044   1.000
    C99     C    0.16741   0.51582   0.34036   1.000
    C100    C    0.48574   0.65270   0.34046   1.000
    C101    C    0.34748   0.83331   0.34041   1.000
    C102    C    0.66653   0.33281   0.75002   1.000
    C103    C    0.33347   0.66722   0.25000   1.000
    O104    O    0.57958   0.62563   0.04412   1.000
    O105    O    0.51228   0.56213   0.04793   1.000
    O106    O    0.57410   0.57384   0.99974   1.000
    O107    O    0.04576   0.62561   0.04414   1.000
    O108    O    0.04973   0.56215   0.04793   1.000
    O109    O    0.99954   0.57379   0.99982   1.000
    O110    O    0.57928   0.95347   0.04439   1.000
    O111    O    0.51202   0.95006   0.04803   1.000
    O112    O    0.57403   0.99984   0.99999   1.000
    O113    O    0.37429   0.95394   0.04444   1.000
    O114    O    0.43798   0.95023   0.04805   1.000
    O115    O    0.42597   0.00018   0.00003   1.000
    O116    O    0.04704   0.42133   0.04469   1.000
    O117    O    0.05019   0.48837   0.04812   1.000
    O118    O    0.00046   0.42623   0.00020   1.000
    O119    O    0.37440   0.42122   0.04472   1.000
    O120    O    0.43817   0.48830   0.04815   1.000
    O121    O    0.42589   0.42618   0.00024   1.000
    O122    O    0.10208   0.55155   0.09796   1.000
    O123    O    0.44893   0.89810   0.09798   1.000
    O124    O    0.44934   0.55148   0.09798   1.000
    O125    O    0.15202   0.61105   0.14556   1.000
    O126    O    0.15233   0.54247   0.14558   1.000
    O127    O    0.38948   0.84812   0.14559   1.000
    O128    O    0.45828   0.84805   0.14560   1.000
    O129    O    0.45882   0.61096   0.14559   1.000
    O130    O    0.39001   0.54239   0.14562   1.000
    O131    O    0.21547   0.69449   0.20475   1.000
    O132    O    0.30589   0.78471   0.20477   1.000
    O133    O    0.47871   0.69439   0.20480   1.000
    O134    O    0.21597   0.52247   0.20481   1.000
    O135    O    0.47842   0.78458   0.20481   1.000
    O136    O    0.30636   0.52243   0.20483   1.000
    O137    O    0.30582   0.78474   0.29519   1.000
    O138    O    0.21545   0.69455   0.29520   1.000
    O139    O    0.40254   0.70163   0.25001   1.000
    O140    O    0.29901   0.59824   0.25001   1.000
    O141    O    0.47833   0.78455   0.29521   1.000
    O142    O    0.47868   0.69437   0.29524   1.000
    O143    O    0.21598   0.52254   0.29519   1.000
    O144    O    0.30634   0.52241   0.29522   1.000
    O145    O    0.15233   0.54262   0.35439   1.000
    O146    O    0.45810   0.84801   0.35440   1.000
    O147    O    0.38997   0.54237   0.35443   1.000
    O148    O    0.38933   0.84814   0.35441   1.000
    O149    O    0.15199   0.61118   0.35443   1.000
    O150    O    0.45878   0.61094   0.35446   1.000
    O151    O    0.44879   0.89810   0.40202   1.000
    O152    O    0.10207   0.55167   0.40202   1.000
    O153    O    0.44931   0.55147   0.40205   1.000
    O154    O    0.51190   0.94998   0.45196   1.000
    O155    O    0.43794   0.95031   0.45197   1.000
    O156    O    0.05025   0.48849   0.45184   1.000
    O157    O    0.04964   0.56220   0.45208   1.000
    O158    O    0.43817   0.48830   0.45183   1.000
    O159    O    0.51226   0.56214   0.45210   1.000
    O160    O    0.04724   0.42152   0.45524   1.000
    O161    O    0.37441   0.42121   0.45523   1.000
    O162    O    0.57908   0.95324   0.45556   1.000
    O163    O    0.37431   0.95415   0.45559   1.000
    O164    O    0.04553   0.62559   0.45591   1.000
    O165    O    0.57956   0.62564   0.45593   1.000
    O166    O    0.42590   0.42618   0.49974   1.000
    O167    O    0.00060   0.42630   0.49978   1.000
    O168    O    0.57396   0.99969   0.50001   1.000
    O169    O    0.42604   0.00033   0.50001   1.000
    O170    O    0.99939   0.57372   0.50024   1.000
    O171    O    0.57409   0.57385   0.50025   1.000
    O172    O    0.42043   0.37438   0.54409   1.000
    O173    O    0.48773   0.43789   0.54792   1.000
    O174    O    0.95446   0.37444   0.54411   1.000
    O175    O    0.95035   0.43783   0.54794   1.000
    O176    O    0.62568   0.04587   0.54443   1.000
    O177    O    0.56206   0.04972   0.54805   1.000
    O178    O    0.42092   0.04679   0.54446   1.000
    O179    O    0.48810   0.05005   0.54805   1.000
    O180    O    0.62558   0.57881   0.54475   1.000
    O181    O    0.56182   0.51172   0.54815   1.000
    O182    O    0.95275   0.57850   0.54478   1.000
    O183    O    0.94975   0.51154   0.54817   1.000
    O184    O    0.55068   0.44855   0.59793   1.000
    O185    O    0.55121   0.10193   0.59799   1.000
    O186    O    0.89793   0.44835   0.59800   1.000
    O187    O    0.54122   0.38909   0.64553   1.000
    O188    O    0.61003   0.45765   0.64555   1.000
    O189    O    0.61067   0.15189   0.64561   1.000
    O190    O    0.54189   0.15202   0.64561   1.000
    O191    O    0.84800   0.38885   0.64560   1.000
    O192    O    0.84767   0.45741   0.64564   1.000
    O193    O    0.52131   0.30565   0.70478   1.000
    O194    O    0.78454   0.30548   0.70479   1.000
    O195    O    0.69417   0.21529   0.70481   1.000
    O196    O    0.69366   0.47761   0.70481   1.000
    O197    O    0.52167   0.21548   0.70481   1.000
    O198    O    0.78401   0.47748   0.70483   1.000
    O199    O    0.59746   0.29839   0.75001   1.000
    O200    O    0.52158   0.21544   0.79521   1.000
    O201    O    0.52129   0.30564   0.79522   1.000
    O202    O    0.69411   0.21531   0.79522   1.000
    O203    O    0.78453   0.30553   0.79524   1.000
    O204    O    0.70099   0.40178   0.75001   1.000
    O205    O    0.69363   0.47759   0.79519   1.000
    O206    O    0.78402   0.47756   0.79521   1.000
    O207    O    0.60999   0.45763   0.85439   1.000
    O208    O    0.84767   0.45755   0.85444   1.000
    O209    O    0.54172   0.15198   0.85442   1.000
    O210    O    0.61052   0.15190   0.85443   1.000
    O211    O    0.54117   0.38906   0.85442   1.000
    O212    O    0.84797   0.38898   0.85447   1.000
    O213    O    0.55066   0.44854   0.90200   1.000
    O214    O    0.55107   0.10192   0.90201   1.000
    O215    O    0.89791   0.44847   0.90207   1.000
    O216    O    0.56182   0.51172   0.95180   1.000
    O217    O    0.48772   0.43789   0.95206   1.000
    O218    O    0.56201   0.04979   0.95195   1.000
    O219    O    0.48798   0.04996   0.95196   1.000
    O220    O    0.94981   0.51165   0.95190   1.000
    O221    O    0.95027   0.43787   0.95209   1.000
    O222    O    0.62559   0.57880   0.95523   1.000
    O223    O    0.95295   0.57869   0.95533   1.000
    O224    O    0.62570   0.04608   0.95557   1.000
    O225    O    0.42072   0.04656   0.95562   1.000
    O226    O    0.95424   0.37442   0.95588   1.000
    O227    O    0.42042   0.37439   0.95591   1.000
    O228    O    0.70118   0.29834   0.75001   1.000
    O229    O    0.29881   0.70169   0.24998   1.000
loop_
    _geom_bond_atom_site_label_1
    _geom_bond_atom_site_label_2
    _geom_bond_distance
    _geom_bond_site_symmetry_2
    _ccdc_geom_bond_type
    C42    O104      0.54440      .   S
    C18    O104      0.54440      .   S
    C42    O105      0.70450      .   S
    C69    O105      0.70450      .   S
    C42    O106      0.69327  1_554   S
    C49    O106      0.69327      .   S
    C36    O107      0.54440      .   S
    C12    O107      0.54440      .   S
    C36    O108      0.70450      .   S
    C67    O108      0.70450      .   S
    C36    O109      0.69277  1_454   S
    C31    O109      0.69277      .   S
    C38    O110      0.54437      .   S
    C14    O110      0.54437      .   S
    C38    O111      0.70461      .   S
    C71    O111      0.70461      .   S
    C38    O112      0.69277  1_554   S
    C32    O112      0.69277  1_545   S
    C44    O113      0.54436      .   S
    C20    O113      0.54436      .   S
    C44    O114      0.70456      .   S
    C71    O114      0.70456      .   S
    C44    O115      0.69277  1_565   S
    C50    O115      0.69277  1_556   S
    C43    O116      0.54435      .   S
    C19    O116      0.54435      .   S
    C43    O117      0.70459      .   S
    C67    O117      0.70459      .   S
    C43    O118      0.69277      .   S
    C48    O118      0.69277  1_656   S
    C37    O119      0.54416      .   S
    C13    O119      0.54416      .   S
    C37    O120      0.70454      .   S
    C69    O120      0.70454      .   S
    C37    O121      0.69279      .   S
    C30    O121      0.69279  1_556   S
    C67    O122      0.73630      .   S
    C66    O122      0.73630      .   S
    C71    O123      0.73633      .   S
    C70    O123      0.73633      .   S
    C69    O124      0.73634      .   S
    C68    O124      0.73634      .   S
    C66    O125      0.64365      .   S
    C91    O125      0.64365      .   S
    C66    O126      0.64359      .   S
    C84    O126      0.64359      .   S
    C70    O127      0.64373      .   S
    C86    O127      0.64373      .   S
    C70    O128      0.64368      .   S
    C92    O128      0.64368      .   S
    C68    O129      0.64360      .   S
    C85    O129      0.64360      .   S
    C68    O130      0.64362      .   S
    C90    O130      0.64362      .   S
    C91    O131      1.04370      .   S
    C4     O131      1.04370      .   S
    C86    O132      1.04315      .   S
    C4     O132      1.04315      .   S
    C85    O133      1.04377      .   S
    C5     O133      1.04377      .   S
    C84    O134      1.04265      .   S
    C3     O134      1.04265      .   S
    C92    O135      1.04302      .   S
    C5     O135      1.04302      .   S
    C90    O136      1.04271      .   S
    C3     O136      1.04271      .   S
    C4     O137      1.04324      .   S
    C101   O137      1.04324      .   S
    C4     O138      1.04403      .   S
    C82    O138      1.04403      .   S
    C103   O139      0.98200      .   S
    C5     O139      0.98200      .   S
    C103   O140      0.98201      .   S
    C3     O140      0.98201      .   S
    C5     O141      1.04262      .   S
    C83    O141      1.04262      .   S
    C5     O142      1.04399      .   S
    C100   O142      1.04399      .   S
    C3     O143      1.04230      .   S
    C99    O143      1.04230      .   S
    C3     O144      1.04285      .   S
    C81    O144      1.04285      .   S
    C99    O145      0.64370      .   S
    C62    O145      0.64370      .   S
    C83    O146      0.64372      .   S
    C64    O146      0.64372      .   S
    C81    O147      0.64365      .   S
    C60    O147      0.64365      .   S
    C101   O148      0.64362      .   S
    C64    O148      0.64362      .   S
    C82    O149      0.64354      .   S
    C62    O149      0.64354      .   S
    C100   O150      0.64361      .   S
    C60    O150      0.64361      .   S
    C64    O151      0.73630      .   S
    C65    O151      0.73630      .   S
    C62    O152      0.73631      .   S
    C63    O152      0.73631      .   S
    C60    O153      0.73638      .   S
    C61    O153      0.73638      .   S
    C65    O154      0.70458      .   S
    C53    O154      0.70458      .   S
    C65    O155      0.70458      .   S
    C35    O155      0.70458      .   S
    C63    O156      0.70457      .   S
    C34    O156      0.70457      .   S
    C63    O157      0.70455      .   S
    C51    O157      0.70455      .   S
    C61    O158      0.70434      .   S
    C52    O158      0.70434      .   S
    C61    O159      0.70451      .   S
    C33    O159      0.70451      .   S
    C10    O160      0.54437      .   S
    C34    O160      0.54437      .   S
    C28    O161      0.54414      .   S
    C52    O161      0.54414      .   S
    C29    O162      0.54437      .   S
    C53    O162      0.54437      .   S
    C11    O163      0.54438      .   S
    C35    O163      0.54438      .   S
    C27    O164      0.54438      .   S
    C51    O164      0.54438      .   S
    C9     O165      0.54438      .   S
    C33    O165      0.54438      .   S
    C52    O166      0.69341      .   S
    C45    O166      0.69341      .   S
    C34    O167      0.69305      .   S
    C39    O167      0.69305  1_655   S
    C53    O168      0.69282      .   S
    C47    O168      0.69282  1_545   S
    C35    O169      0.69282  1_565   S
    C41    O169      0.69282      .   S
    C51    O170      0.69305  1_455   S
    C46    O170      0.69305      .   S
    C33    O171      0.69300      .   S
    C40    O171      0.69300      .   S
    C45    O172      0.54438      .   S
    C21    O172      0.54438      .   S
    C45    O173      0.70450      .   S
    C75    O173      0.70450      .   S
    C39    O174      0.54438      .   S
    C15    O174      0.54438      .   S
    C39    O175      0.70452      .   S
    C73    O175      0.70452      .   S
    C47    O176      0.54439      .   S
    C23    O176      0.54439      .   S
    C47    O177      0.70457      .   S
    C77    O177      0.70457      .   S
    C41    O178      0.54438      .   S
    C17    O178      0.54438      .   S
    C41    O179      0.70458      .   S
    C77    O179      0.70458      .   S
    C40    O180      0.54435      .   S
    C16    O180      0.54435      .   S
    C40    O181      0.70454      .   S
    C75    O181      0.70454      .   S
    C46    O182      0.54434      .   S
    C22    O182      0.54434      .   S
    C46    O183      0.70456      .   S
    C73    O183      0.70456      .   S
    C75    O184      0.73598      .   S
    C74    O184      0.73598      .   S
    C77    O185      0.73621      .   S
    C76    O185      0.73621      .   S
    C73    O186      0.73633      .   S
    C72    O186      0.73633      .   S
    C74    O187      0.64380      .   S
    C88    O187      0.64380      .   S
    C74    O188      0.64385      .   S
    C93    O188      0.64385      .   S
    C76    O189      0.64368      .   S
    C89    O189      0.64368      .   S
    C76    O190      0.64377      .   S
    C95    O190      0.64377      .   S
    C72    O191      0.64353      .   S
    C94    O191      0.64353      .   S
    C72    O192      0.64371      .   S
    C87    O192      0.64371      .   S
    C88    O193      1.04401      .   S
    C2     O193      1.04401      .   S
    C94    O194      1.04370      .   S
    C1     O194      1.04370      .   S
    C89    O195      1.04289      .   S
    C1     O195      1.04289      .   S
    C93    O196      1.04285      .   S
    C0     O196      1.04285      .   S
    C95    O197      1.04260      .   S
    C2     O197      1.04260      .   S
    C87    O198      1.04229      .   S
    C0     O198      1.04229      .   S
    C2     O199      0.98200      .   S
    C102   O199      0.98200      .   S
    C2     O200      1.04303      .   S
    C80    O200      1.04303      .   S
    C2     O201      1.04376      .   S
    C97    O201      1.04376      .   S
    C1     O202      1.04349      .   S
    C98    O202      1.04349      .   S
    C1     O203      1.04402      .   S
    C79    O203      1.04402      .   S
    C0     O204      0.98201      .   S
    C102   O204      0.98201      .   S
    C0     O205      1.04276      .   S
    C78    O205      1.04276      .   S
    C0     O206      1.04259      .   S
    C96    O206      1.04259      .   S
    C78    O207      0.64354      .   S
    C54    O207      0.64354      .   S
    C96    O208      0.64363      .   S
    C56    O208      0.64363      .   S
    C80    O209      0.64367      .   S
    C58    O209      0.64367      .   S
    C98    O210      0.64373      .   S
    C58    O210      0.64373      .   S
    C97    O211      0.64355      .   S
    C54    O211      0.64355      .   S
    C79    O212      0.64365      .   S
    C56    O212      0.64365      .   S
    C54    O213      0.73614      .   S
    C55    O213      0.73614      .   S
    C58    O214      0.73607      .   S
    C59    O214      0.73607      .   S
    C56    O215      0.73629      .   S
    C57    O215      0.73629      .   S
    C55    O216      0.70446      .   S
    C49    O216      0.70446      .   S
    C55    O217      0.70465      .   S
    C30    O217      0.70465      .   S
    C59    O218      0.70467      .   S
    C32    O218      0.70467      .   S
    C59    O219      0.70474      .   S
    C50    O219      0.70474      .   S
    C57    O220      0.70459      .   S
    C31    O220      0.70459      .   S
    C57    O221      0.70451      .   S
    C48    O221      0.70451      .   S
    C25    O222      0.54410      .   S
    C49    O222      0.54410      .   S
    C7     O223      0.54436      .   S
    C31    O223      0.54436      .   S
    C8     O224      0.54436      .   S
    C32    O224      0.54436      .   S
    C26    O225      0.54436      .   S
    C50    O225      0.54436      .   S
    C24    O226      0.54440      .   S
    C48    O226      0.54440      .   S
    C6     O227      0.54437      .   S
    C30    O227      0.54437      .   S
    C102   O228      0.98209      .   S
    C1     O228      0.98209      .   S
    C103   O229      0.98210      .   S
    C4     O229      0.98210      .   S
