# CIF file generated by openbabel 2.4.90, see http://openbabel.sf.net
data_I
_chemical_name_common ''
_cell_length_a 16.401
_cell_length_b 16.425
_cell_length_c 16.079
_cell_angle_alpha 90.014
_cell_angle_beta 89.992
_cell_angle_gamma 119.912
_space_group_name_H-M_alt 'P 1'
_space_group_name_Hall 'P 1'
loop_
    _symmetry_equiv_pos_as_xyz
    x,y,z
loop_
    _atom_site_label
    _atom_site_type_symbol
    _atom_site_fract_x
    _atom_site_fract_y
    _atom_site_fract_z
    _atom_site_occupancy
    N0      N    1.00000   0.50001   0.00001   1.000
    N1      N    0.50000   0.00001   0.00001   1.000
    N2      N    0.50000   0.50001   0.50000   1.000
    N3      N    1.00000   0.50001   0.50001   1.000
    N4      N    0.50000   0.00001   0.50001   1.000
    N5      N    0.50000   0.50001   1.00000   1.000
    Zr6     Zr   0.33345   0.66717   0.25000   1.000
    O7      O    0.22072   0.58922   0.32380   1.000
    O8      O    0.36831   0.58920   0.17621   1.000
    O9      O    0.36831   0.58919   0.32380   1.000
    O10     O    0.22072   0.58921   0.17620   1.000
    O11     O    0.36820   0.77977   0.17619   1.000
    O12     O    0.22059   0.63221   0.17619   1.000
    O13     O    0.22059   0.63223   0.32380   1.000
    O14     O    0.36818   0.77977   0.32380   1.000
    O15     O    0.41133   0.77973   0.17620   1.000
    O16     O    0.41139   0.63218   0.32381   1.000
    O17     O    0.41131   0.77973   0.32380   1.000
    O18     O    0.41140   0.63219   0.17620   1.000
    Zr19    Zr   0.66655   0.33285   0.75001   1.000
    O20     O    0.77928   0.41082   0.82381   1.000
    O21     O    0.63169   0.41083   0.67620   1.000
    O22     O    0.77928   0.41080   0.67621   1.000
    O23     O    0.63168   0.41083   0.82380   1.000
    O24     O    0.63180   0.22026   0.82381   1.000
    O25     O    0.77940   0.36781   0.82381   1.000
    O26     O    0.77941   0.36780   0.67620   1.000
    O27     O    0.63182   0.22025   0.67621   1.000
    O28     O    0.58867   0.22029   0.82381   1.000
    O29     O    0.58860   0.36784   0.67620   1.000
    O30     O    0.58869   0.22030   0.67621   1.000
    O31     O    0.58860   0.36784   0.82381   1.000
loop_
    _geom_bond_atom_site_label_1
    _geom_bond_atom_site_label_2
    _geom_bond_distance
    _geom_bond_site_symmetry_2
    _ccdc_geom_bond_type
    Zr6    O7        2.02605      .   S
    N3     O7        4.24125  1_655   S
    Zr6    O8        2.02598      .   S
    N5     O8        4.24139  1_556   S
    Zr6    O9        2.02654      .   S
    N2     O9        4.24214      .   S
    Zr6    O10       2.02602      .   S
    N0     O10       4.24129  1_655   S
    Zr6    O11       2.02559      .   S
    N1     O11       4.24132  1_545   S
    Zr6    O12       2.02596      .   S
    N0     O12       4.24196  1_655   S
    Zr6    O13       2.02586      .   S
    N3     O13       4.24224  1_655   S
    Zr6    O14       2.02521      .   S
    N4     O14       4.24078  1_545   S
    Zr6    O15       2.02559      .   S
    N1     O15       4.24120  1_545   S
    Zr6    O16       2.02645      .   S
    N2     O16       4.24272      .   S
    Zr6    O17       2.02521      .   S
    N4     O17       4.24044  1_545   S
    Zr6    O18       2.02604      .   S
    N5     O18       4.24185  1_556   S
    Zr19   O20       2.02608      .   S
    N0     O20       4.24137  1_554   S
    Zr19   O21       2.02652      .   S
    N2     O21       4.24222      .   S
    Zr19   O22       2.02598      .   S
    N3     O22       4.24117      .   S
    Zr19   O23       2.02600      .   S
    N5     O23       4.24125      .   S
    Zr19   O24       2.02559      .   S
    N1     O24       4.24145  1_554   S
    Zr19   O25       2.02595      .   S
    N0     O25       4.24211  1_554   S
    Zr19   O26       2.02586      .   S
    N3     O26       4.24209      .   S
    Zr19   O27       2.02520      .   S
    N4     O27       4.24063      .   S
    Zr19   O28       2.02565      .   S
    N1     O28       4.24125  1_554   S
    Zr19   O29       2.02643      .   S
    N2     O29       4.24280      .   S
    Zr19   O30       2.02514      .   S
    N4     O30       4.24037      .   S
    Zr19   O31       2.02605      .   S
    N5     O31       4.24172      .   S
