# CIF file generated by openbabel 2.4.90, see http://openbabel.sf.net
data_I
_chemical_name_common ''
_cell_length_a 13.215
_cell_length_b 17.408
_cell_length_c 17.409
_cell_angle_alpha 81.734
_cell_angle_beta 67.678
_cell_angle_gamma 67.69
_space_group_name_H-M_alt 'P 1'
_space_group_name_Hall 'P 1'
loop_
    _symmetry_equiv_pos_as_xyz
    x,y,z
loop_
    _atom_site_label
    _atom_site_type_symbol
    _atom_site_fract_x
    _atom_site_fract_y
    _atom_site_fract_z
    _atom_site_occupancy
    Cu0     Cu   0.88730   0.25008   0.72528   1.000
    Cu1     Cu   0.63736   0.22527   0.75014   1.000
    Cu2     Cu   0.11274   0.27477   0.74989   1.000
    Cu3     Cu   0.63743   0.75017   0.22520   1.000
    Cu4     Cu   0.11266   0.74990   0.27476   1.000
    Cu5     Cu   0.36259   0.77475   0.24988   1.000
    Cu6     Cu   0.88722   0.72520   0.25016   1.000
    Cu7     Cu   0.36256   0.24984   0.77479   1.000
    C8      C    0.38722   0.11955   0.90190   1.000
    C9      C    0.44095   0.05896   0.95285   1.000
    C10     C    0.90875   0.38040   0.59818   1.000
    C11     C    0.95279   0.44101   0.54720   1.000
    C12     C    0.78913   0.09819   0.61970   1.000
    C13     C    0.89379   0.04718   0.55907   1.000
    C14     C    0.00677   0.40185   0.88040   1.000
    C15     C    0.99993   0.45286   0.94099   1.000
    C16     C    0.09132   0.40189   0.61950   1.000
    C17     C    0.04722   0.45284   0.55899   1.000
    C18     C    0.61266   0.09815   0.88042   1.000
    C19     C    0.55900   0.04716   0.94101   1.000
    C20     C    0.99319   0.11961   0.59813   1.000
    C21     C    0.00000   0.05900   0.54717   1.000
    C22     C    0.21084   0.38036   0.90179   1.000
    C23     C    0.10616   0.44095   0.95284   1.000
    C24     C    0.61276   0.88047   0.09810   1.000
    C25     C    0.55905   0.94103   0.04713   1.000
    C26     C    0.09122   0.61957   0.40186   1.000
    C27     C    0.04716   0.55898   0.45285   1.000
    C28     C    0.21080   0.90182   0.38035   1.000
    C29     C    0.10614   0.95283   0.44098   1.000
    C30     C    0.99322   0.59812   0.11959   1.000
    C31     C    0.00000   0.54714   0.05900   1.000
    C32     C    0.90863   0.59810   0.38049   1.000
    C33     C    0.95274   0.54714   0.44106   1.000
    C34     C    0.38733   0.90185   0.11957   1.000
    C35     C    0.44099   0.95284   0.05898   1.000
    C36     C    0.00674   0.88040   0.40191   1.000
    C37     C    0.99989   0.94100   0.45288   1.000
    C38     C    0.78917   0.61967   0.09817   1.000
    C39     C    0.89383   0.55905   0.04710   1.000
    I40     I    0.49995   0.32941   0.67066   1.000
    I41     I    0.99999   0.17064   0.82942   1.000
    I42     I    0.67047   0.32955   0.82952   1.000
    I43     I    0.32951   0.17051   0.67040   1.000
    I44     I    0.50002   0.67059   0.32934   1.000
    I45     I    0.99997   0.82936   0.17063   1.000
    I46     I    0.32947   0.67048   0.17052   1.000
    I47     I    0.67046   0.82947   0.32955   1.000
    N48     N    0.44288   0.16431   0.84561   1.000
    N49     N    0.95290   0.33568   0.65446   1.000
    N50     N    0.78854   0.15452   0.66441   1.000
    N51     N    0.10723   0.34559   0.83560   1.000
    N52     N    0.04720   0.34559   0.66432   1.000
    N53     N    0.55696   0.15444   0.83500   1.000
    N54     N    0.89275   0.16437   0.65440   1.000
    N55     N    0.21140   0.33556   0.84555   1.000
    N56     N    0.55711   0.83569   0.15430   1.000
    N57     N    0.04703   0.66432   0.34560   1.000
    N58     N    0.21138   0.84552   0.33560   1.000
    N59     N    0.89278   0.65445   0.16436   1.000
    N60     N    0.95278   0.65437   0.33570   1.000
    N61     N    0.44301   0.84558   0.16432   1.000
    N62     N    0.10719   0.83561   0.34559   1.000
    N63     N    0.78858   0.66439   0.15449   1.000
loop_
    _geom_bond_atom_site_label_1
    _geom_bond_atom_site_label_2
    _geom_bond_distance
    _geom_bond_site_symmetry_2
    _ccdc_geom_bond_type
    C39    C31       1.42896  1_655   S
    C39    C38       1.42990      .   S
    C25    C35       1.42934      .   S
    C25    C24       1.42968      .   S
    C35    C34       1.42970      .   S
    C31    C30       1.43000  1_455   S
    C24    N56       1.33232      .   S
    C38    N63       1.33286      .   S
    C34    N61       1.33287      .   S
    C30    N59       1.33293      .   S
    N56    N61       1.39471      .   S
    N56    Cu3       2.03313      .   S
    N63    N59       1.39496      .   S
    N63    Cu3       2.03253      .   S
    N61    Cu5       2.03291      .   S
    N59    Cu6       2.03226      .   S
    I46    Cu4       2.67923      .   S
    I45    Cu4       2.68006  1_655   S
    Cu5    I44       2.68078      .   S
    Cu5    N58       2.03270      .   S
    Cu6    I47       2.67893      .   S
    Cu6    N60       2.03213      .   S
    Cu4    N62       2.03245      .   S
    Cu4    N57       2.03293      .   S
    N58    N62       1.39498      .   S
    N58    C28       1.33289      .   S
    N60    N57       1.39512  1_655   S
    N60    C32       1.33294      .   S
    N62    C36       1.33291      .   S
    N57    C26       1.33303      .   S
    C28    C29       1.42961      .   S
    C32    C33       1.42968      .   S
    C26    C27       1.42963      .   S
    C36    C37       1.42978  1_455   S
    C29    C37       1.42928  1_455   S
    C33    C27       1.42948  1_655   S
    C21    C13       1.42878  1_455   S
    C21    C20       1.42997  1_455   S
    C11    C17       1.42951  1_655   S
    C11    C10       1.42970      .   S
    C17    C16       1.42871      .   S
    C13    C12       1.42956      .   S
    C20    N54       1.33228      .   S
    C10    N49       1.33283      .   S
    C16    N52       1.33327      .   S
    C12    N50       1.33289      .   S
    N54    N50       1.39460      .   S
    N54    Cu0       2.03322      .   S
    N49    N52       1.39514  1_655   S
    N49    Cu0       2.03292      .   S
    N52    Cu2       2.03228      .   S
    N50    Cu1       2.03250      .   S
    I43    Cu2       2.67940      .   S
    I40    Cu1       2.68078      .   S
    Cu0    I41       2.68015      .   S
    Cu2    N51       2.03209      .   S
    Cu1    I42       2.67953      .   S
    Cu1    N53       2.02742      .   S
    Cu7    N55       2.03240      .   S
    Cu7    N48       2.03221      .   S
    N53    N48       1.39185      .   S
    N53    C18       1.34126      .   S
    N51    N55       1.39491      .   S
    N51    C14       1.33270      .   S
    N55    C22       1.33283      .   S
    N48    C8        1.33291      .   S
    C14    C15       1.43012  1_455   S
    C18    C19       1.42968      .   S
    C22    C23       1.42958      .   S
    C8     C9        1.42970      .   S
    C15    C23       1.42935  1_655   S
    C19    C9        1.42935      .   S
