# CIF file generated by openbabel 2.4.90, see http://openbabel.sf.net
data_I
_chemical_name_common ''
_cell_length_a 13.215
_cell_length_b 17.408
_cell_length_c 17.409
_cell_angle_alpha 81.734
_cell_angle_beta 67.678
_cell_angle_gamma 67.69
_space_group_name_H-M_alt 'P 1'
_space_group_name_Hall 'P 1'
loop_
    _symmetry_equiv_pos_as_xyz
    x,y,z
loop_
    _atom_site_label
    _atom_site_type_symbol
    _atom_site_fract_x
    _atom_site_fract_y
    _atom_site_fract_z
    _atom_site_occupancy
    Zr0     Zr   0.36256   0.24984   0.77479   1.000
    Zr1     Zr   0.88730   0.25008   0.72528   1.000
    Zr2     Zr   0.63736   0.22527   0.75014   1.000
    Zr3     Zr   0.11274   0.27477   0.74989   1.000
    Zr4     Zr   0.63743   0.75017   0.22520   1.000
    Zr5     Zr   0.11266   0.74990   0.27476   1.000
    Zr6     Zr   0.36259   0.77475   0.24988   1.000
    Zr7     Zr   0.88722   0.72520   0.25016   1.000
    Zr8     Zr   0.38722   0.11955   0.90190   1.000
    Zr9     Zr   0.44095   0.05896   0.95285   1.000
    Zr10    Zr   0.90875   0.38040   0.59818   1.000
    Zr11    Zr   0.95279   0.44101   0.54720   1.000
    Zr12    Zr   0.78913   0.09819   0.61970   1.000
    Zr13    Zr   0.89379   0.04718   0.55907   1.000
    Zr14    Zr   0.00677   0.40185   0.88040   1.000
    Zr15    Zr   0.99993   0.45286   0.94099   1.000
    Zr16    Zr   0.09132   0.40189   0.61950   1.000
    Zr17    Zr   0.04722   0.45284   0.55899   1.000
    Zr18    Zr   0.61266   0.09815   0.88042   1.000
    Zr19    Zr   0.55900   0.04716   0.94101   1.000
    Zr20    Zr   0.99319   0.11961   0.59813   1.000
    Zr21    Zr   0.00000   0.05900   0.54717   1.000
    Zr22    Zr   0.21084   0.38036   0.90179   1.000
    Zr23    Zr   0.10616   0.44095   0.95284   1.000
    Zr24    Zr   0.61276   0.88047   0.09810   1.000
    Zr25    Zr   0.55905   0.94103   0.04713   1.000
    Zr26    Zr   0.09122   0.61957   0.40186   1.000
    Zr27    Zr   0.04716   0.55898   0.45285   1.000
    Zr28    Zr   0.21080   0.90182   0.38035   1.000
    Zr29    Zr   0.10614   0.95283   0.44098   1.000
    Zr30    Zr   0.99322   0.59812   0.11959   1.000
    Zr31    Zr   0.00000   0.54714   0.05900   1.000
    Zr32    Zr   0.90863   0.59810   0.38049   1.000
    Zr33    Zr   0.95274   0.54714   0.44106   1.000
    Zr34    Zr   0.38733   0.90185   0.11957   1.000
    Zr35    Zr   0.44099   0.95284   0.05898   1.000
    Zr36    Zr   0.00674   0.88040   0.40191   1.000
    Zr37    Zr   0.99989   0.94100   0.45288   1.000
    Zr38    Zr   0.78917   0.61967   0.09817   1.000
    Zr39    Zr   0.89383   0.55905   0.04710   1.000
    Zr40    Zr   0.49995   0.32941   0.67066   1.000
    Zr41    Zr   0.99999   0.17064   0.82942   1.000
    Zr42    Zr   0.67047   0.32955   0.82952   1.000
    Zr43    Zr   0.32951   0.17051   0.67040   1.000
    Zr44    Zr   0.50002   0.67059   0.32934   1.000
    Zr45    Zr   0.99997   0.82936   0.17063   1.000
    Zr46    Zr   0.32947   0.67048   0.17052   1.000
    Zr47    Zr   0.67046   0.82947   0.32955   1.000
    Zr48    Zr   0.44288   0.16431   0.84561   1.000
    Zr49    Zr   0.95290   0.33568   0.65446   1.000
    Zr50    Zr   0.78854   0.15452   0.66441   1.000
    Zr51    Zr   0.10723   0.34559   0.83560   1.000
    Zr52    Zr   0.04720   0.34559   0.66432   1.000
    Zr53    Zr   0.55696   0.15444   0.83500   1.000
    Zr54    Zr   0.89275   0.16437   0.65440   1.000
    Zr55    Zr   0.21140   0.33556   0.84555   1.000
    Zr56    Zr   0.55711   0.83569   0.15430   1.000
    Zr57    Zr   0.04703   0.66432   0.34560   1.000
    Zr58    Zr   0.21138   0.84552   0.33560   1.000
    Zr59    Zr   0.89278   0.65445   0.16436   1.000
    Zr60    Zr   0.95278   0.65437   0.33570   1.000
    Zr61    Zr   0.44301   0.84558   0.16432   1.000
    Zr62    Zr   0.10719   0.83561   0.34559   1.000
    Zr63    Zr   0.78858   0.66439   0.15449   1.000
    O64     O    0.94692   0.55310   0.05305   1.000
    O65     O    0.84150   0.58936   0.07264   1.000
    O66     O    0.50002   0.94694   0.05306   1.000
    O67     O    0.58590   0.91075   0.07262   1.000
    O68     O    0.41416   0.92734   0.08928   1.000
    O69     O    0.99661   0.57263   0.08930   1.000
    O70     O    0.58493   0.85808   0.12620   1.000
    O71     O    0.78887   0.64203   0.12633   1.000
    O72     O    0.41517   0.87372   0.14195   1.000
    O73     O    0.94300   0.62628   0.14198   1.000
    O74     O    0.50006   0.84064   0.15931   1.000
    O75     O    0.59727   0.79293   0.18975   1.000
    O76     O    0.84068   0.65942   0.15943   1.000
    O77     O    0.71300   0.70728   0.18985   1.000
    O78     O    0.40280   0.81017   0.20710   1.000
    O79     O    0.89000   0.68983   0.20726   1.000
    O80     O    0.22107   0.71019   0.22264   1.000
    O81     O    0.05632   0.78963   0.22270   1.000
    O82     O    0.43130   0.72267   0.28961   1.000
    O83     O    0.28699   0.81014   0.29274   1.000
    O84     O    0.77884   0.77733   0.28986   1.000
    O85     O    0.92000   0.68978   0.29293   1.000
    O86     O    0.10992   0.79276   0.31018   1.000
    O87     O    0.07984   0.70711   0.31018   1.000
    O88     O    0.15928   0.84056   0.34060   1.000
    O89     O    0.21109   0.87367   0.35798   1.000
    O90     O    0.99991   0.65935   0.34065   1.000
    O91     O    0.93070   0.62624   0.35810   1.000
    O92     O    0.05696   0.85800   0.37375   1.000
    O93     O    0.06912   0.64195   0.37373   1.000
    O94     O    0.15847   0.92732   0.41067   1.000
    O95     O    0.93068   0.57262   0.41078   1.000
    O96     O    0.06919   0.58927   0.42736   1.000
    O97     O    0.00332   0.91070   0.42740   1.000
    O98     O    0.05302   0.94691   0.44693   1.000
    O99     O    0.99995   0.55306   0.44696   1.000
    O100    O    0.94690   0.05309   0.55312   1.000
    O101    O    0.99660   0.08931   0.57265   1.000
    O102    O    0.00000   0.44692   0.55310   1.000
    O103    O    0.93077   0.41070   0.57269   1.000
    O104    O    0.06927   0.42736   0.58925   1.000
    O105    O    0.84146   0.07268   0.58939   1.000
    O106    O    0.94297   0.14199   0.62627   1.000
    O107    O    0.93083   0.35804   0.62632   1.000
    O108    O    0.06926   0.37374   0.64191   1.000
    O109    O    0.78883   0.12635   0.64206   1.000
    O110    O    0.84065   0.15945   0.65941   1.000
    O111    O    0.89003   0.20723   0.68984   1.000
    O112    O    0.00005   0.34063   0.65939   1.000
    O113    O    0.92010   0.29288   0.68987   1.000
    O114    O    0.07997   0.31018   0.70711   1.000
    O115    O    0.71295   0.18990   0.70728   1.000
    O116    O    0.22113   0.22264   0.71015   1.000
    O117    O    0.56866   0.27734   0.71040   1.000
    O118    O    0.94364   0.21036   0.77735   1.000
    O119    O    0.10998   0.31018   0.79275   1.000
    O120    O    0.65391   0.27741   0.78983   1.000
    O121    O    0.59716   0.18986   0.79257   1.000
    O122    O    0.28698   0.29270   0.81017   1.000
    O123    O    0.40272   0.20708   0.81020   1.000
    O124    O    0.49992   0.15938   0.84031   1.000
    O125    O    0.58481   0.12630   0.85771   1.000
    O126    O    0.15932   0.34057   0.84058   1.000
    O127    O    0.05700   0.37372   0.85800   1.000
    O128    O    0.21112   0.35796   0.87367   1.000
    O129    O    0.41505   0.14193   0.87376   1.000
    O130    O    0.00335   0.42736   0.91070   1.000
    O131    O    0.58583   0.07266   0.91072   1.000
    O132    O    0.15850   0.41066   0.92732   1.000
    O133    O    0.41408   0.08926   0.92738   1.000
    O134    O    0.05305   0.44691   0.94692   1.000
    O135    O    0.49997   0.05306   0.94693   1.000
    N136    N    0.75420   0.98453   0.51569   1.000
    O137    O    0.85033   0.97447   0.49915   1.000
    O138    O    0.82380   0.00101   0.52569   1.000
    O139    O    0.85313   0.92891   0.46129   1.000
    O140    O    0.74324   0.03891   0.57126   1.000
    N141    N    0.75424   0.51568   0.98448   1.000
    O142    O    0.85316   0.46126   0.92889   1.000
    O143    O    0.74328   0.57125   0.03886   1.000
    O144    O    0.82384   0.52568   0.00096   1.000
    O145    O    0.85036   0.49913   0.97444   1.000
    N146    N    0.24575   0.48431   0.01548   1.000
    O147    O    0.14683   0.53872   0.07109   1.000
    O148    O    0.17616   0.47432   0.99900   1.000
    O149    O    0.14962   0.50087   0.02554   1.000
    O150    O    0.25672   0.42876   0.96111   1.000
    N151    N    0.23014   0.51558   0.51548   1.000
    O152    O    0.15053   0.52559   0.49900   1.000
    O153    O    0.15055   0.49906   0.52554   1.000
    O154    O    0.18559   0.46121   0.57106   1.000
    O155    O    0.18554   0.57114   0.46113   1.000
    N156    N    0.76119   0.98454   0.98441   1.000
    O157    O    0.71786   0.92896   0.03879   1.000
    O158    O    0.67515   0.97448   0.00092   1.000
    O159    O    0.67513   0.00101   0.97439   1.000
    O160    O    0.71782   0.03889   0.92885   1.000
    N161    N    0.76982   0.48440   0.48457   1.000
    O162    O    0.81442   0.42884   0.53892   1.000
    O163    O    0.84940   0.50092   0.47451   1.000
    O164    O    0.84942   0.47439   0.50104   1.000
    O165    O    0.81436   0.53877   0.42898   1.000
    N166    N    0.24573   0.01548   0.48434   1.000
    O167    O    0.17613   0.99900   0.47435   1.000
    O168    O    0.14959   0.02554   0.50089   1.000
    O169    O    0.14680   0.07110   0.53875   1.000
    O170    O    0.25669   0.96111   0.42877   1.000
    N171    N    0.23879   0.01547   0.01558   1.000
    O172    O    0.32484   0.02553   0.99907   1.000
    O173    O    0.32485   0.99900   0.02560   1.000
    O174    O    0.28211   0.07106   0.96122   1.000
    O175    O    0.28217   0.96112   0.07114   1.000
loop_
    _geom_bond_atom_site_label_1
    _geom_bond_atom_site_label_2
    _geom_bond_distance
    _geom_bond_site_symmetry_2
    _ccdc_geom_bond_type
    Zr39   O64       0.71448      .   S
    Zr31   O64       0.71448  1_455   S
    Zr39   O65       0.71495      .   S
    Zr38   O65       0.71495      .   S
    Zr25   O66       0.71467      .   S
    Zr35   O66       0.71467      .   S
    Zr25   O67       0.71484      .   S
    Zr24   O67       0.71484      .   S
    Zr35   O68       0.71485      .   S
    Zr34   O68       0.71485      .   S
    Zr31   O69       0.71500  1_455   S
    Zr30   O69       0.71500      .   S
    Zr24   O70       0.66616      .   S
    Zr56   O70       0.66616      .   S
    Zr38   O71       0.66643      .   S
    Zr63   O71       0.66643      .   S
    Zr34   O72       0.66644      .   S
    Zr61   O72       0.66644      .   S
    Zr30   O73       0.66646      .   S
    Zr59   O73       0.66646      .   S
    Zr56   O74       0.69735      .   S
    Zr61   O74       0.69735      .   S
    Zr56   O75       1.01656      .   S
    Zr4    O75       1.01656      .   S
    Zr63   O76       0.69748      .   S
    Zr59   O76       0.69748      .   S
    Zr63   O77       1.01626      .   S
    Zr4    O77       1.01626      .   S
    Zr61   O78       1.01646      .   S
    Zr6    O78       1.01646      .   S
    Zr59   O79       1.01613      .   S
    Zr7    O79       1.01613      .   S
    Zr46   O80       1.33962      .   S
    Zr5    O80       1.33962      .   S
    Zr45   O81       1.34003  1_655   S
    Zr5    O81       1.34003      .   S
    Zr6    O82       1.34039      .   S
    Zr44   O82       1.34039      .   S
    Zr6    O83       1.01635      .   S
    Zr58   O83       1.01635      .   S
    Zr7    O84       1.33946      .   S
    Zr47   O84       1.33946      .   S
    Zr7    O85       1.01606      .   S
    Zr60   O85       1.01606      .   S
    Zr5    O86       1.01622      .   S
    Zr62   O86       1.01622      .   S
    Zr5    O87       1.01646      .   S
    Zr57   O87       1.01646      .   S
    Zr58   O88       0.69749      .   S
    Zr62   O88       0.69749      .   S
    Zr58   O89       0.66645      .   S
    Zr28   O89       0.66645      .   S
    Zr60   O90       0.69756      .   S
    Zr57   O90       0.69756  1_455   S
    Zr60   O91       0.66647      .   S
    Zr32   O91       0.66647      .   S
    Zr62   O92       0.66646      .   S
    Zr36   O92       0.66646      .   S
    Zr57   O93       0.66651      .   S
    Zr26   O93       0.66651      .   S
    Zr28   O94       0.71481      .   S
    Zr29   O94       0.71481      .   S
    Zr32   O95       0.71484      .   S
    Zr33   O95       0.71484      .   S
    Zr26   O96       0.71481      .   S
    Zr27   O96       0.71481      .   S
    Zr36   O97       0.71489      .   S
    Zr37   O97       0.71489  1_655   S
    Zr29   O98       0.71464      .   S
    Zr37   O98       0.71464  1_655   S
    Zr33   O99       0.71474      .   S
    Zr27   O99       0.71474  1_455   S
    Zr21   O100      0.71439  1_455   S
    Zr13   O100      0.71439      .   S
    Zr21   O101      0.71499  1_455   S
    Zr20   O101      0.71499      .   S
    Zr11   O102      0.71476  1_655   S
    Zr17   O102      0.71476      .   S
    Zr11   O103      0.71485      .   S
    Zr10   O103      0.71485      .   S
    Zr17   O104      0.71436      .   S
    Zr16   O104      0.71436      .   S
    Zr13   O105      0.71478      .   S
    Zr12   O105      0.71478      .   S
    Zr20   O106      0.66614      .   S
    Zr54   O106      0.66614      .   S
    Zr10   O107      0.66641      .   S
    Zr49   O107      0.66641      .   S
    Zr16   O108      0.66664      .   S
    Zr52   O108      0.66664      .   S
    Zr12   O109      0.66645      .   S
    Zr50   O109      0.66645      .   S
    Zr54   O110      0.69730      .   S
    Zr50   O110      0.69730      .   S
    Zr54   O111      1.01661      .   S
    Zr1    O111      1.01661      .   S
    Zr49   O112      0.69757  1_655   S
    Zr52   O112      0.69757      .   S
    Zr49   O113      1.01646      .   S
    Zr1    O113      1.01646      .   S
    Zr52   O114      1.01614      .   S
    Zr3    O114      1.01614      .   S
    Zr50   O115      1.01625      .   S
    Zr2    O115      1.01625      .   S
    Zr43   O116      1.33970      .   S
    Zr3    O116      1.33970      .   S
    Zr40   O117      1.34039      .   S
    Zr2    O117      1.34039      .   S
    Zr1    O118      1.34007      .   S
    Zr41   O118      1.34007      .   S
    Zr3    O119      1.01604      .   S
    Zr51   O119      1.01604      .   S
    Zr2    O120      1.33977      .   S
    Zr42   O120      1.33977      .   S
    Zr2    O121      1.01371      .   S
    Zr53   O121      1.01371      .   S
    Zr0    O122      1.01620      .   S
    Zr55   O122      1.01620      .   S
    Zr0    O123      1.01611      .   S
    Zr48   O123      1.01611      .   S
    Zr53   O124      0.69592      .   S
    Zr48   O124      0.69592      .   S
    Zr53   O125      0.67063      .   S
    Zr18   O125      0.67063      .   S
    Zr51   O126      0.69745      .   S
    Zr55   O126      0.69745      .   S
    Zr51   O127      0.66635      .   S
    Zr14   O127      0.66635      .   S
    Zr55   O128      0.66642      .   S
    Zr22   O128      0.66642      .   S
    Zr48   O129      0.66646      .   S
    Zr8    O129      0.66646      .   S
    Zr14   O130      0.71506      .   S
    Zr15   O130      0.71506  1_655   S
    Zr18   O131      0.71484      .   S
    Zr19   O131      0.71484      .   S
    Zr22   O132      0.71479      .   S
    Zr23   O132      0.71479      .   S
    Zr8    O133      0.71485      .   S
    Zr9    O133      0.71485      .   S
    Zr15   O134      0.71467  1_655   S
    Zr23   O134      0.71467      .   S
    Zr19   O135      0.71467      .   S
    Zr9    O135      0.71467      .   S
    N136   O137      1.13791      .   S
    Zr37   O137      1.71645      .   S
    N136   O138      1.13792  1_565   S
    Zr13   O138      1.71638      .   S
    N136   O139      1.38045      .   S
    Zr36   O139      1.80501  1_455   S
    N136   O140      1.38041  1_565   S
    Zr12   O140      1.80493      .   S
    N141   O142      1.38035      .   S
    Zr14   O142      1.80500  1_455   S
    N141   O143      1.38049  1_556   S
    Zr38   O143      1.80503      .   S
    N141   O144      1.13791  1_556   S
    Zr39   O144      1.71601      .   S
    N141   O145      1.13798      .   S
    Zr15   O145      1.71649      .   S
    N146   O147      1.38043      .   S
    Zr30   O147      1.80504  1_655   S
    N146   O148      1.13790  1_554   S
    Zr23   O148      1.71630      .   S
    N146   O149      1.13814      .   S
    Zr31   O149      1.71704      .   S
    N146   O150      1.38026  1_554   S
    Zr22   O150      1.80481      .   S
    N151   O152      1.13793      .   S
    Zr27   O152      1.71651      .   S
    N151   O153      1.13794      .   S
    Zr17   O153      1.71654      .   S
    N151   O154      1.38044      .   S
    Zr16   O154      1.80499      .   S
    N151   O155      1.38049      .   S
    Zr26   O155      1.80498      .   S
    N156   O157      1.38048  1_556   S
    Zr24   O157      1.80496      .   S
    N156   O158      1.13789  1_556   S
    Zr25   O158      1.71641      .   S
    N156   O159      1.13786  1_565   S
    Zr19   O159      1.71633      .   S
    N156   O160      1.38043  1_565   S
    Zr18   O160      1.80489      .   S
    N161   O162      1.38053      .   S
    Zr10   O162      1.80508      .   S
    N161   O163      1.13794      .   S
    Zr33   O163      1.71654      .   S
    N161   O164      1.13792      .   S
    Zr11   O164      1.71650      .   S
    N161   O165      1.38054      .   S
    Zr32   O165      1.80506      .   S
    N166   O167      1.13785  1_545   S
    Zr29   O167      1.71630      .   S
    N166   O168      1.13800      .   S
    Zr21   O168      1.71676      .   S
    N166   O169      1.38047      .   S
    Zr20   O169      1.80502  1_655   S
    N166   O170      1.38034  1_545   S
    Zr28   O170      1.80486      .   S
    N171   O172      1.13789  1_554   S
    Zr9    O172      1.71639      .   S
    N171   O173      1.13788  1_545   S
    Zr35   O173      1.71634      .   S
    N171   O174      1.38046  1_554   S
    Zr8    O174      1.80499      .   S
    N171   O175      1.38045  1_545   S
    Zr34   O175      1.80495      .   S
