# CIF file generated by openbabel 2.4.90, see http://openbabel.sf.net
data_I
_chemical_name_common ''
_cell_length_a 13.215
_cell_length_b 17.408
_cell_length_c 17.409
_cell_angle_alpha 81.734
_cell_angle_beta 67.678
_cell_angle_gamma 67.69
_space_group_name_H-M_alt 'P 1'
_space_group_name_Hall 'P 1'
loop_
    _symmetry_equiv_pos_as_xyz
    x,y,z
loop_
    _atom_site_label
    _atom_site_type_symbol
    _atom_site_fract_x
    _atom_site_fract_y
    _atom_site_fract_z
    _atom_site_occupancy
    C0      C    0.36256   0.24984   0.77479   1.000
    C1      C    0.88730   0.25008   0.72528   1.000
    C2      C    0.63736   0.22527   0.75014   1.000
    C3      C    0.11274   0.27477   0.74989   1.000
    C4      C    0.63743   0.75017   0.22520   1.000
    C5      C    0.11266   0.74990   0.27476   1.000
    C6      C    0.36259   0.77475   0.24988   1.000
    C7      C    0.88722   0.72520   0.25016   1.000
    C8      C    0.20450   0.18626   0.95502   1.000
    C9      C    0.25111   0.15348   0.85211   1.000
    C10     C    0.28266   0.00743   0.89680   1.000
    C11     C    0.13908   0.07103   0.95479   1.000
    C12     C    0.84591   0.31365   0.54512   1.000
    C13     C    0.75682   0.34639   0.64805   1.000
    C14     C    0.68684   0.49243   0.60336   1.000
    C15     C    0.66494   0.42877   0.54542   1.000
    C16     C    0.65944   0.04520   0.68648   1.000
    C17     C    0.60320   0.14811   0.65370   1.000
    C18     C    0.67934   0.10331   0.50770   1.000
    C19     C    0.59366   0.04545   0.57130   1.000
    C20     C    0.89076   0.45507   0.81374   1.000
    C21     C    0.90457   0.35216   0.84639   1.000
    C22     C    0.79003   0.39689   0.99251   1.000
    C23     C    0.71008   0.45485   0.92896   1.000
    C24     C    0.15416   0.45504   0.68625   1.000
    C25     C    0.24329   0.35212   0.65350   1.000
    C26     C    0.31315   0.39680   0.50744   1.000
    C27     C    0.33509   0.45478   0.57104   1.000
    C28     C    0.79538   0.04513   0.81363   1.000
    C29     C    0.74870   0.14804   0.84644   1.000
    C30     C    0.71728   0.10329   0.99246   1.000
    C31     C    0.86086   0.04538   0.92879   1.000
    C32     C    0.10923   0.18628   0.54497   1.000
    C33     C    0.09539   0.15360   0.64787   1.000
    C34     C    0.20989   0.00750   0.60312   1.000
    C35     C    0.28989   0.07104   0.54517   1.000
    C36     C    0.34043   0.31355   0.95487   1.000
    C37     C    0.39676   0.34624   0.85195   1.000
    C38     C    0.32071   0.49229   0.89669   1.000
    C39     C    0.40629   0.42866   0.95459   1.000
    C40     C    0.79551   0.81375   0.04500   1.000
    C41     C    0.74884   0.84657   0.14792   1.000
    C42     C    0.71729   0.99261   0.10315   1.000
    C43     C    0.86088   0.92900   0.04523   1.000
    C44     C    0.15407   0.68634   0.45491   1.000
    C45     C    0.24315   0.65357   0.35198   1.000
    C46     C    0.31312   0.50754   0.39669   1.000
    C47     C    0.33502   0.57121   0.45462   1.000
    C48     C    0.34045   0.95484   0.31355   1.000
    C49     C    0.39672   0.85194   0.34628   1.000
    C50     C    0.32061   0.89671   0.49232   1.000
    C51     C    0.40626   0.95459   0.42860   1.000
    C52     C    0.10921   0.54489   0.18627   1.000
    C53     C    0.09542   0.64780   0.15365   1.000
    C54     C    0.20997   0.60310   0.00752   1.000
    C55     C    0.28992   0.54512   0.07107   1.000
    C56     C    0.84578   0.54495   0.31380   1.000
    C57     C    0.75666   0.64787   0.34653   1.000
    C58     C    0.68680   0.60318   0.49261   1.000
    C59     C    0.66486   0.54521   0.42901   1.000
    C60     C    0.20460   0.95488   0.18636   1.000
    C61     C    0.25129   0.85197   0.15355   1.000
    C62     C    0.28269   0.89673   0.00753   1.000
    C63     C    0.13912   0.95463   0.07120   1.000
    C64     C    0.89070   0.81373   0.45511   1.000
    C65     C    0.90454   0.84638   0.35220   1.000
    C66     C    0.79005   0.99249   0.39693   1.000
    C67     C    0.71004   0.92896   0.45489   1.000
    C68     C    0.65961   0.68645   0.04508   1.000
    C69     C    0.60322   0.65380   0.14801   1.000
    C70     C    0.67927   0.50773   0.10331   1.000
    C71     C    0.59370   0.57136   0.04500   1.000
    C72     C    0.19850   0.07279   0.07290   1.000
    C73     C    0.84420   0.42710   0.42726   1.000
    C74     C    0.77123   0.92727   0.57300   1.000
    C75     C    0.77134   0.57294   0.92724   1.000
    C76     C    0.15576   0.57288   0.57279   1.000
    C77     C    0.80150   0.92721   0.92710   1.000
    C78     C    0.22867   0.07275   0.42706   1.000
    C79     C    0.22866   0.42704   0.07274   1.000
    C80     C    0.38722   0.11955   0.90190   1.000
    C81     C    0.44095   0.05896   0.95285   1.000
    C82     C    0.26366   0.13375   0.91180   1.000
    C83     C    0.23173   0.05656   0.94450   1.000
    C84     C    0.90875   0.38040   0.59818   1.000
    C85     C    0.95279   0.44101   0.54720   1.000
    C86     C    0.80930   0.36615   0.58835   1.000
    C87     C    0.73278   0.44331   0.55569   1.000
    C88     C    0.78913   0.09819   0.61970   1.000
    C89     C    0.89379   0.04718   0.55907   1.000
    C90     C    0.67541   0.08837   0.63397   1.000
    C91     C    0.67608   0.05567   0.55680   1.000
    C92     C    0.00677   0.40185   0.88040   1.000
    C93     C    0.99993   0.45286   0.94099   1.000
    C94     C    0.89741   0.41183   0.86619   1.000
    C95     C    0.78825   0.44455   0.94340   1.000
    C96     C    0.09132   0.40189   0.61950   1.000
    C97     C    0.04722   0.45284   0.55899   1.000
    C98     C    0.19077   0.41179   0.63377   1.000
    C99     C    0.26723   0.44447   0.55656   1.000
    C100    C    0.61266   0.09815   0.88042   1.000
    C101    C    0.55900   0.04716   0.94101   1.000
    C102    C    0.73621   0.08832   0.86616   1.000
    C103    C    0.76821   0.05563   0.94332   1.000
    C104    C    0.99319   0.11961   0.59813   1.000
    C105    C    0.00000   0.05900   0.54717   1.000
    C106    C    0.10257   0.13381   0.58819   1.000
    C107    C    0.21171   0.05659   0.55546   1.000
    C108    C    0.21084   0.38036   0.90179   1.000
    C109    C    0.10616   0.44095   0.95284   1.000
    C110    C    0.32453   0.36604   0.91167   1.000
    C111    C    0.32390   0.44321   0.94430   1.000
    C112    C    0.61276   0.88047   0.09810   1.000
    C113    C    0.55905   0.94103   0.04713   1.000
    C114    C    0.73632   0.86627   0.08822   1.000
    C115    C    0.76824   0.94347   0.05550   1.000
    C116    C    0.09122   0.61957   0.40186   1.000
    C117    C    0.04716   0.55898   0.45285   1.000
    C118    C    0.19067   0.63383   0.41169   1.000
    C119    C    0.26718   0.55666   0.44435   1.000
    C120    C    0.21080   0.90182   0.38035   1.000
    C121    C    0.10614   0.95283   0.44098   1.000
    C122    C    0.32452   0.91166   0.36605   1.000
    C123    C    0.32385   0.94435   0.44322   1.000
    C124    C    0.99322   0.59812   0.11959   1.000
    C125    C    0.00000   0.54714   0.05900   1.000
    C126    C    0.10258   0.58815   0.13382   1.000
    C127    C    0.21174   0.55543   0.05660   1.000
    C128    C    0.90863   0.59810   0.38049   1.000
    C129    C    0.95274   0.54714   0.44106   1.000
    C130    C    0.80918   0.58820   0.36628   1.000
    C131    C    0.73272   0.55552   0.44349   1.000
    C132    C    0.38733   0.90185   0.11957   1.000
    C133    C    0.44099   0.95284   0.05898   1.000
    C134    C    0.26377   0.91169   0.13383   1.000
    C135    C    0.23178   0.94438   0.05667   1.000
    C136    C    0.00674   0.88040   0.40191   1.000
    C137    C    0.99989   0.94100   0.45288   1.000
    C138    C    0.89736   0.86618   0.41187   1.000
    C139    C    0.78823   0.94341   0.44459   1.000
    C140    C    0.78917   0.61967   0.09817   1.000
    C141    C    0.89383   0.55905   0.04710   1.000
    C142    C    0.67547   0.63398   0.08831   1.000
    C143    C    0.67610   0.55680   0.05564   1.000
    C144    C    0.38084   0.01220   0.01225   1.000
    C145    C    0.25645   0.02435   0.02446   1.000
    C146    C    0.90525   0.48775   0.48784   1.000
    C147    C    0.80522   0.47555   0.47570   1.000
    C148    C    0.89300   0.98780   0.51232   1.000
    C149    C    0.78075   0.97567   0.52450   1.000
    C150    C    0.89304   0.51230   0.98779   1.000
    C151    C    0.78079   0.52452   0.97566   1.000
    C152    C    0.09470   0.51223   0.51221   1.000
    C153    C    0.19473   0.52444   0.52435   1.000
    C154    C    0.61915   0.98780   0.98774   1.000
    C155    C    0.74353   0.97566   0.97554   1.000
    C156    C    0.10693   0.01221   0.48773   1.000
    C157    C    0.21918   0.02434   0.47549   1.000
    C158    C    0.10695   0.48771   0.01220   1.000
    C159    C    0.21920   0.47547   0.02433   1.000
    C160    C    0.49995   0.32941   0.67066   1.000
    C161    C    0.99999   0.17064   0.82942   1.000
    C162    C    0.67047   0.32955   0.82952   1.000
    C163    C    0.32951   0.17051   0.67040   1.000
    C164    C    0.50002   0.67059   0.32934   1.000
    C165    C    0.99997   0.82936   0.17063   1.000
    C166    C    0.32947   0.67048   0.17052   1.000
    C167    C    0.67046   0.82947   0.32955   1.000
    C168    C    0.44288   0.16431   0.84561   1.000
    C169    C    0.95290   0.33568   0.65446   1.000
    C170    C    0.78854   0.15452   0.66441   1.000
    C171    C    0.10723   0.34559   0.83560   1.000
    C172    C    0.04720   0.34559   0.66432   1.000
    C173    C    0.55696   0.15444   0.83500   1.000
    C174    C    0.89275   0.16437   0.65440   1.000
    C175    C    0.21140   0.33556   0.84555   1.000
    C176    C    0.55711   0.83569   0.15430   1.000
    C177    C    0.04703   0.66432   0.34560   1.000
    C178    C    0.21138   0.84552   0.33560   1.000
    C179    C    0.89278   0.65445   0.16436   1.000
    C180    C    0.95278   0.65437   0.33570   1.000
    C181    C    0.44301   0.84558   0.16432   1.000
    C182    C    0.10719   0.83561   0.34559   1.000
    C183    C    0.78858   0.66439   0.15449   1.000
    O184    O    0.21086   0.57927   0.03206   1.000
    O185    O    0.25724   0.92055   0.03210   1.000
    O186    O    0.16308   0.48159   0.01827   1.000
    O187    O    0.05348   0.51742   0.03560   1.000
    O188    O    0.10656   0.46433   0.98252   1.000
    O189    O    0.31865   0.01828   0.01836   1.000
    O190    O    0.41091   0.98252   0.03562   1.000
    O191    O    0.41089   0.03558   0.98255   1.000
    O192    O    0.21547   0.51545   0.04047   1.000
    O193    O    0.22393   0.45126   0.04854   1.000
    O194    O    0.27155   0.45934   0.98432   1.000
    O195    O    0.24411   0.98436   0.04057   1.000
    O196    O    0.22748   0.04857   0.04868   1.000
    O197    O    0.24409   0.04045   0.98448   1.000
    O198    O    0.76591   0.84001   0.06661   1.000
    O199    O    0.63490   0.56408   0.05032   1.000
    O200    O    0.66754   0.66021   0.06670   1.000
    O201    O    0.81456   0.93624   0.05037   1.000
    O202    O    0.94692   0.55310   0.05305   1.000
    O203    O    0.84150   0.58936   0.07264   1.000
    O204    O    0.89344   0.53567   0.01745   1.000
    O205    O    0.50002   0.94694   0.05306   1.000
    O206    O    0.58590   0.91075   0.07262   1.000
    O207    O    0.58910   0.96441   0.01744   1.000
    O208    O    0.75228   0.90487   0.07186   1.000
    O209    O    0.74276   0.96804   0.07933   1.000
    O210    O    0.75588   0.95956   0.01552   1.000
    O211    O    0.67578   0.59539   0.07198   1.000
    O212    O    0.67768   0.53227   0.07948   1.000
    O213    O    0.72845   0.54066   0.01565   1.000
    O214    O    0.25083   0.55027   0.06384   1.000
    O215    O    0.15716   0.57179   0.09521   1.000
    O216    O    0.18545   0.94950   0.06394   1.000
    O217    O    0.24777   0.92803   0.09525   1.000
    O218    O    0.41416   0.92734   0.08928   1.000
    O219    O    0.99661   0.57263   0.08930   1.000
    O220    O    0.67454   0.87337   0.09316   1.000
    O221    O    0.74258   0.85642   0.11807   1.000
    O222    O    0.73232   0.62682   0.09324   1.000
    O223    O    0.63934   0.64389   0.11816   1.000
    O224    O    0.58493   0.85808   0.12620   1.000
    O225    O    0.78887   0.64203   0.12633   1.000
    O226    O    0.32555   0.90677   0.12670   1.000
    O227    O    0.41517   0.87372   0.14195   1.000
    O228    O    0.04790   0.59313   0.12671   1.000
    O229    O    0.94300   0.62628   0.14198   1.000
    O230    O    0.09900   0.61798   0.14374   1.000
    O231    O    0.10590   0.56652   0.16005   1.000
    O232    O    0.25753   0.88183   0.14369   1.000
    O233    O    0.23419   0.93328   0.16010   1.000
    O234    O    0.50006   0.84064   0.15931   1.000
    O235    O    0.59727   0.79293   0.18975   1.000
    O236    O    0.84068   0.65942   0.15943   1.000
    O237    O    0.71300   0.70728   0.18985   1.000
    O238    O    0.40280   0.81017   0.20710   1.000
    O239    O    0.89000   0.68983   0.20726   1.000
    O240    O    0.22107   0.71019   0.22264   1.000
    O241    O    0.05632   0.78963   0.22270   1.000
    O242    O    0.43130   0.72267   0.28961   1.000
    O243    O    0.28699   0.81014   0.29274   1.000
    O244    O    0.77884   0.77733   0.28986   1.000
    O245    O    0.92000   0.68978   0.29293   1.000
    O246    O    0.10992   0.79276   0.31018   1.000
    O247    O    0.07984   0.70711   0.31018   1.000
    O248    O    0.33249   0.93325   0.33980   1.000
    O249    O    0.82748   0.56657   0.34004   1.000
    O250    O    0.15928   0.84056   0.34060   1.000
    O251    O    0.21109   0.87367   0.35798   1.000
    O252    O    0.99991   0.65935   0.34065   1.000
    O253    O    0.93070   0.62624   0.35810   1.000
    O254    O    0.05696   0.85800   0.37375   1.000
    O255    O    0.06912   0.64195   0.37373   1.000
    O256    O    0.36062   0.88180   0.35617   1.000
    O257    O    0.78292   0.61803   0.35641   1.000
    O258    O    0.21691   0.64370   0.38184   1.000
    O259    O    0.90095   0.85628   0.38204   1.000
    O260    O    0.26766   0.90674   0.37320   1.000
    O261    O    0.32418   0.92801   0.40464   1.000
    O262    O    0.85890   0.59315   0.37339   1.000
    O263    O    0.77095   0.57186   0.40489   1.000
    O264    O    0.15847   0.92732   0.41067   1.000
    O265    O    0.93068   0.57262   0.41078   1.000
    O266    O    0.29015   0.53210   0.42052   1.000
    O267    O    0.78914   0.96795   0.42076   1.000
    O268    O    0.14094   0.62670   0.40678   1.000
    O269    O    0.06919   0.58927   0.42736   1.000
    O270    O    0.95205   0.87329   0.40689   1.000
    O271    O    0.00332   0.91070   0.42740   1.000
    O272    O    0.22892   0.59525   0.42802   1.000
    O273    O    0.17237   0.66008   0.43330   1.000
    O274    O    0.84280   0.90480   0.42823   1.000
    O275    O    0.89403   0.83995   0.43349   1.000
    O276    O    0.22392   0.04855   0.45128   1.000
    O277    O    0.82471   0.45132   0.45148   1.000
    O278    O    0.36506   0.94947   0.43591   1.000
    O279    O    0.69879   0.55036   0.43625   1.000
    O280    O    0.05302   0.94691   0.44693   1.000
    O281    O    0.10653   0.98252   0.46436   1.000
    O282    O    0.99995   0.55306   0.44696   1.000
    O283    O    0.92899   0.51745   0.46445   1.000
    O284    O    0.27151   0.98435   0.45936   1.000
    O285    O    0.32223   0.92053   0.46777   1.000
    O286    O    0.76897   0.51553   0.45960   1.000
    O287    O    0.70976   0.57935   0.46805   1.000
    O288    O    0.30110   0.56393   0.44949   1.000
    O289    O    0.23096   0.54055   0.48435   1.000
    O290    O    0.74913   0.93619   0.44974   1.000
    O291    O    0.78449   0.95954   0.48455   1.000
    O292    O    0.07093   0.53561   0.48253   1.000
    O293    O    0.94645   0.96440   0.48260   1.000
    O294    O    0.16305   0.01827   0.48161   1.000
    O295    O    0.21544   0.04046   0.51548   1.000
    O296    O    0.85523   0.48165   0.48177   1.000
    O297    O    0.76900   0.45943   0.51570   1.000
    O298    O    0.05346   0.03560   0.51745   1.000
    O299    O    0.92902   0.46438   0.51752   1.000
    O300    O    0.29019   0.42064   0.53200   1.000
    O301    O    0.67771   0.07949   0.53225   1.000
    O302    O    0.14472   0.51833   0.51828   1.000
    O303    O    0.07096   0.48253   0.53560   1.000
    O304    O    0.83688   0.98174   0.51841   1.000
    O305    O    0.89340   0.01749   0.53570   1.000
    O306    O    0.23098   0.48445   0.54046   1.000
    O307    O    0.17525   0.54866   0.54857   1.000
    O308    O    0.72841   0.01567   0.54065   1.000
    O309    O    0.77599   0.95147   0.54875   1.000
    O310    O    0.10590   0.16005   0.56658   1.000
    O311    O    0.82760   0.33990   0.56674   1.000
    O312    O    0.25080   0.06381   0.55032   1.000
    O313    O    0.69886   0.43604   0.55056   1.000
    O314    O    0.94690   0.05309   0.55312   1.000
    O315    O    0.99660   0.08931   0.57265   1.000
    O316    O    0.00000   0.44692   0.55310   1.000
    O317    O    0.93077   0.41070   0.57269   1.000
    O318    O    0.15714   0.09520   0.57183   1.000
    O319    O    0.21080   0.03204   0.57929   1.000
    O320    O    0.77104   0.40473   0.57202   1.000
    O321    O    0.70981   0.46787   0.57953   1.000
    O322    O    0.30116   0.44962   0.56380   1.000
    O323    O    0.22900   0.42813   0.59517   1.000
    O324    O    0.63487   0.05056   0.56405   1.000
    O325    O    0.67574   0.07202   0.59539   1.000
    O326    O    0.06927   0.42736   0.58925   1.000
    O327    O    0.84146   0.07268   0.58939   1.000
    O328    O    0.04788   0.12671   0.59316   1.000
    O329    O    0.09898   0.14371   0.61803   1.000
    O330    O    0.85902   0.37328   0.59327   1.000
    O331    O    0.78306   0.35627   0.61820   1.000
    O332    O    0.94297   0.14199   0.62627   1.000
    O333    O    0.93083   0.35804   0.62632   1.000
    O334    O    0.14105   0.40684   0.62664   1.000
    O335    O    0.06926   0.37374   0.64191   1.000
    O336    O    0.73227   0.09328   0.62684   1.000
    O337    O    0.78883   0.12635   0.64206   1.000
    O338    O    0.21703   0.38195   0.64364   1.000
    O339    O    0.17247   0.43341   0.66001   1.000
    O340    O    0.63930   0.11824   0.64384   1.000
    O341    O    0.66742   0.06679   0.66023   1.000
    O342    O    0.84065   0.15945   0.65941   1.000
    O343    O    0.89003   0.20723   0.68984   1.000
    O344    O    0.00005   0.34063   0.65939   1.000
    O345    O    0.92010   0.29288   0.68987   1.000
    O346    O    0.07997   0.31018   0.70711   1.000
    O347    O    0.71295   0.18990   0.70728   1.000
    O348    O    0.22113   0.22264   0.71015   1.000
    O349    O    0.56866   0.27734   0.71040   1.000
    O350    O    0.94364   0.21036   0.77735   1.000
    O351    O    0.10998   0.31018   0.79275   1.000
    O352    O    0.65391   0.27741   0.78983   1.000
    O353    O    0.59716   0.18986   0.79257   1.000
    O354    O    0.28698   0.29270   0.81017   1.000
    O355    O    0.40272   0.20708   0.81020   1.000
    O356    O    0.76580   0.06672   0.83990   1.000
    O357    O    0.89408   0.43345   0.83997   1.000
    O358    O    0.49992   0.15938   0.84031   1.000
    O359    O    0.58481   0.12630   0.85771   1.000
    O360    O    0.15932   0.34057   0.84058   1.000
    O361    O    0.05700   0.37372   0.85800   1.000
    O362    O    0.21112   0.35796   0.87367   1.000
    O363    O    0.41505   0.14193   0.87376   1.000
    O364    O    0.90099   0.38200   0.85629   1.000
    O365    O    0.74246   0.11818   0.85630   1.000
    O366    O    0.36065   0.35614   0.88181   1.000
    O367    O    0.25738   0.14362   0.88196   1.000
    O368    O    0.67444   0.09324   0.87329   1.000
    O369    O    0.75221   0.07198   0.90474   1.000
    O370    O    0.95209   0.40684   0.87330   1.000
    O371    O    0.84283   0.42819   0.90480   1.000
    O372    O    0.00335   0.42736   0.91070   1.000
    O373    O    0.58583   0.07266   0.91072   1.000
    O374    O    0.32231   0.46775   0.92050   1.000
    O375    O    0.25719   0.03199   0.92065   1.000
    O376    O    0.26769   0.37320   0.90673   1.000
    O377    O    0.15850   0.41066   0.92732   1.000
    O378    O    0.32544   0.12665   0.90685   1.000
    O379    O    0.41408   0.08926   0.92738   1.000
    O380    O    0.32422   0.40462   0.92799   1.000
    O381    O    0.33248   0.33980   0.93327   1.000
    O382    O    0.24769   0.09515   0.92815   1.000
    O383    O    0.23408   0.16000   0.93341   1.000
    O384    O    0.77252   0.95143   0.95132   1.000
    O385    O    0.77607   0.54873   0.95145   1.000
    O386    O    0.81453   0.05051   0.93606   1.000
    O387    O    0.74916   0.44970   0.93618   1.000
    O388    O    0.05305   0.44691   0.94692   1.000
    O389    O    0.94649   0.48258   0.96439   1.000
    O390    O    0.49997   0.05306   0.94693   1.000
    O391    O    0.58908   0.01748   0.96438   1.000
    O392    O    0.75587   0.01564   0.95943   1.000
    O393    O    0.74274   0.07946   0.96789   1.000
    O394    O    0.78452   0.48454   0.95953   1.000
    O395    O    0.78914   0.42072   0.96796   1.000
    O396    O    0.36510   0.43593   0.94945   1.000
    O397    O    0.18540   0.06380   0.94965   1.000
    O398    O    0.68134   0.98173   0.98164   1.000
    O399    O    0.83692   0.51841   0.98173   1.000
loop_
    _geom_bond_atom_site_label_1
    _geom_bond_atom_site_label_2
    _geom_bond_distance
    _geom_bond_site_symmetry_2
    _ccdc_geom_bond_type
    C54    O184      0.55132      .   S
    C127   O184      0.55132      .   S
    C62    O185      0.55128      .   S
    C135   O185      0.55128      .   S
    C158   O186      0.75424      .   S
    C159   O186      0.75424      .   S
    C158   O187      0.70523      .   S
    C125   O187      0.70523      .   S
    C158   O188      0.70480  1_554   S
    C109   O188      0.70480      .   S
    C144   O189      0.75424      .   S
    C145   O189      0.75424      .   S
    C144   O190      0.70487  1_545   S
    C133   O190      0.70487      .   S
    C144   O191      0.70495  1_554   S
    C81    O191      0.70495      .   S
    C159   O192      0.76508      .   S
    C127   O192      0.76508      .   S
    C159   O193      0.55508      .   S
    C79    O193      0.55508      .   S
    C159   O194      0.76510  1_554   S
    C111   O194      0.76510      .   S
    C145   O195      0.76490  1_545   S
    C135   O195      0.76490      .   S
    C145   O196      0.55504      .   S
    C72    O196      0.55504      .   S
    C145   O197      0.76499  1_554   S
    C83    O197      0.76499      .   S
    C40    O198      0.55262      .   S
    C114   O198      0.55262      .   S
    C71    O199      0.55100      .   S
    C143   O199      0.55100      .   S
    C68    O200      0.55259      .   S
    C142   O200      0.55259      .   S
    C43    O201      0.54928      .   S
    C115   O201      0.54928      .   S
    C141   O202      0.71448      .   S
    C125   O202      0.71448  1_455   S
    C141   O203      0.71495      .   S
    C140   O203      0.71495      .   S
    C141   O204      0.70445      .   S
    C150   O204      0.70445  1_556   S
    C113   O205      0.71467      .   S
    C133   O205      0.71467      .   S
    C113   O206      0.71484      .   S
    C112   O206      0.71484      .   S
    C113   O207      0.70493      .   S
    C154   O207      0.70493  1_556   S
    C115   O208      0.76421      .   S
    C114   O208      0.76421      .   S
    C115   O209      0.55129      .   S
    C42    O209      0.55129      .   S
    C115   O210      0.76490      .   S
    C155   O210      0.76490  1_556   S
    C143   O211      0.76420      .   S
    C142   O211      0.76420      .   S
    C143   O212      0.55127      .   S
    C70    O212      0.55127      .   S
    C143   O213      0.76487      .   S
    C151   O213      0.76487  1_556   S
    C127   O214      0.54926      .   S
    C55    O214      0.54926      .   S
    C127   O215      0.76417      .   S
    C126   O215      0.76417      .   S
    C135   O216      0.54927      .   S
    C63    O216      0.54927      .   S
    C135   O217      0.76419      .   S
    C134   O217      0.76419      .   S
    C133   O218      0.71485      .   S
    C132   O218      0.71485      .   S
    C125   O219      0.71500  1_455   S
    C124   O219      0.71500      .   S
    C114   O220      0.74987      .   S
    C112   O220      0.74987      .   S
    C114   O221      0.55007      .   S
    C41    O221      0.55007      .   S
    C142   O222      0.74979      .   S
    C140   O222      0.74979      .   S
    C142   O223      0.55000      .   S
    C69    O223      0.55000      .   S
    C112   O224      0.66616      .   S
    C176   O224      0.66616      .   S
    C140   O225      0.66643      .   S
    C183   O225      0.66643      .   S
    C132   O226      0.74981      .   S
    C134   O226      0.74981      .   S
    C132   O227      0.66644      .   S
    C181   O227      0.66644      .   S
    C124   O228      0.74993  1_655   S
    C126   O228      0.74993      .   S
    C124   O229      0.66646      .   S
    C179   O229      0.66646      .   S
    C126   O230      0.55006      .   S
    C53    O230      0.55006      .   S
    C126   O231      0.55259      .   S
    C52    O231      0.55259      .   S
    C134   O232      0.55007      .   S
    C61    O232      0.55007      .   S
    C134   O233      0.55251      .   S
    C60    O233      0.55251      .   S
    C176   O234      0.69735      .   S
    C181   O234      0.69735      .   S
    C176   O235      1.01656      .   S
    C4     O235      1.01656      .   S
    C183   O236      0.69748      .   S
    C179   O236      0.69748      .   S
    C183   O237      1.01626      .   S
    C4     O237      1.01626      .   S
    C181   O238      1.01646      .   S
    C6     O238      1.01646      .   S
    C179   O239      1.01613      .   S
    C7     O239      1.01613      .   S
    C166   O240      1.33962      .   S
    C5     O240      1.33962      .   S
    C165   O241      1.34003  1_655   S
    C5     O241      1.34003      .   S
    C6     O242      1.34039      .   S
    C164   O242      1.34039      .   S
    C6     O243      1.01635      .   S
    C178   O243      1.01635      .   S
    C7     O244      1.33946      .   S
    C167   O244      1.33946      .   S
    C7     O245      1.01606      .   S
    C180   O245      1.01606      .   S
    C5     O246      1.01622      .   S
    C182   O246      1.01622      .   S
    C5     O247      1.01646      .   S
    C177   O247      1.01646      .   S
    C48    O248      0.55253      .   S
    C122   O248      0.55253      .   S
    C56    O249      0.55251      .   S
    C130   O249      0.55251      .   S
    C178   O250      0.69749      .   S
    C182   O250      0.69749      .   S
    C178   O251      0.66645      .   S
    C120   O251      0.66645      .   S
    C180   O252      0.69756      .   S
    C177   O252      0.69756  1_455   S
    C180   O253      0.66647      .   S
    C128   O253      0.66647      .   S
    C182   O254      0.66646      .   S
    C136   O254      0.66646      .   S
    C177   O255      0.66651      .   S
    C116   O255      0.66651      .   S
    C49    O256      0.55005      .   S
    C122   O256      0.55005      .   S
    C57    O257      0.55007      .   S
    C130   O257      0.55007      .   S
    C45    O258      0.55006      .   S
    C118   O258      0.55006      .   S
    C65    O259      0.55004      .   S
    C138   O259      0.55004      .   S
    C122   O260      0.74979      .   S
    C120   O260      0.74979      .   S
    C122   O261      0.76418      .   S
    C123   O261      0.76418      .   S
    C130   O262      0.74987      .   S
    C128   O262      0.74987      .   S
    C130   O263      0.76422      .   S
    C131   O263      0.76422      .   S
    C120   O264      0.71481      .   S
    C121   O264      0.71481      .   S
    C128   O265      0.71484      .   S
    C129   O265      0.71484      .   S
    C46    O266      0.55126      .   S
    C119   O266      0.55126      .   S
    C66    O267      0.55126      .   S
    C139   O267      0.55126      .   S
    C116   O268      0.74982      .   S
    C118   O268      0.74982      .   S
    C116   O269      0.71481      .   S
    C117   O269      0.71481      .   S
    C136   O270      0.74991  1_455   S
    C138   O270      0.74991      .   S
    C136   O271      0.71489      .   S
    C137   O271      0.71489  1_655   S
    C118   O272      0.76419      .   S
    C119   O272      0.76419      .   S
    C118   O273      0.55256      .   S
    C44    O273      0.55256      .   S
    C138   O274      0.76422      .   S
    C139   O274      0.76422      .   S
    C138   O275      0.55254      .   S
    C64    O275      0.55254      .   S
    C78    O276      0.55508      .   S
    C157   O276      0.55508      .   S
    C73    O277      0.55507      .   S
    C147   O277      0.55507      .   S
    C51    O278      0.54915      .   S
    C123   O278      0.54915      .   S
    C59    O279      0.54929      .   S
    C131   O279      0.54929      .   S
    C121   O280      0.71464      .   S
    C137   O280      0.71464  1_655   S
    C121   O281      0.70487      .   S
    C156   O281      0.70487  1_545   S
    C129   O282      0.71474      .   S
    C117   O282      0.71474  1_455   S
    C129   O283      0.70501      .   S
    C146   O283      0.70501      .   S
    C123   O284      0.76488      .   S
    C157   O284      0.76488  1_545   S
    C123   O285      0.55128      .   S
    C50    O285      0.55128      .   S
    C131   O286      0.76507      .   S
    C147   O286      0.76507      .   S
    C131   O287      0.55125      .   S
    C58    O287      0.55125      .   S
    C119   O288      0.54930      .   S
    C47    O288      0.54930      .   S
    C119   O289      0.76506      .   S
    C153   O289      0.76506      .   S
    C139   O290      0.54926      .   S
    C67    O290      0.54926      .   S
    C139   O291      0.76460      .   S
    C149   O291      0.76460      .   S
    C117   O292      0.70500      .   S
    C152   O292      0.70500      .   S
    C137   O293      0.70502      .   S
    C148   O293      0.70502      .   S
    C157   O294      0.75423      .   S
    C156   O294      0.75423      .   S
    C157   O295      0.76506      .   S
    C107   O295      0.76506      .   S
    C147   O296      0.75425      .   S
    C146   O296      0.75425      .   S
    C147   O297      0.76503      .   S
    C87    O297      0.76503      .   S
    C156   O298      0.70513      .   S
    C105   O298      0.70513      .   S
    C146   O299      0.70499      .   S
    C85    O299      0.70499      .   S
    C26    O300      0.55127      .   S
    C99    O300      0.55127      .   S
    C18    O301      0.55124      .   S
    C91    O301      0.55124      .   S
    C152   O302      0.75427      .   S
    C153   O302      0.75427      .   S
    C152   O303      0.70503      .   S
    C97    O303      0.70503      .   S
    C148   O304      0.75436      .   S
    C149   O304      0.75436      .   S
    C148   O305      0.70487  1_565   S
    C89    O305      0.70487      .   S
    C153   O306      0.76506      .   S
    C99    O306      0.76506      .   S
    C153   O307      0.55509      .   S
    C76    O307      0.55509      .   S
    C149   O308      0.76495  1_565   S
    C91    O308      0.76495      .   S
    C149   O309      0.55540      .   S
    C74    O309      0.55540      .   S
    C32    O310      0.55253      .   S
    C106   O310      0.55253      .   S
    C12    O311      0.55253      .   S
    C86    O311      0.55253      .   S
    C35    O312      0.54928      .   S
    C107   O312      0.54928      .   S
    C15    O313      0.54928      .   S
    C87    O313      0.54928      .   S
    C105   O314      0.71439  1_455   S
    C89    O314      0.71439      .   S
    C105   O315      0.71499  1_455   S
    C104   O315      0.71499      .   S
    C85    O316      0.71476  1_655   S
    C97    O316      0.71476      .   S
    C85    O317      0.71485      .   S
    C84    O317      0.71485      .   S
    C107   O318      0.76420      .   S
    C106   O318      0.76420      .   S
    C107   O319      0.55131      .   S
    C34    O319      0.55131      .   S
    C87    O320      0.76420      .   S
    C86    O320      0.76420      .   S
    C87    O321      0.55127      .   S
    C14    O321      0.55127      .   S
    C99    O322      0.54927      .   S
    C27    O322      0.54927      .   S
    C99    O323      0.76423      .   S
    C98    O323      0.76423      .   S
    C91    O324      0.54932      .   S
    C19    O324      0.54932      .   S
    C91    O325      0.76418      .   S
    C90    O325      0.76418      .   S
    C97    O326      0.71436      .   S
    C96    O326      0.71436      .   S
    C89    O327      0.71478      .   S
    C88    O327      0.71478      .   S
    C106   O328      0.74990      .   S
    C104   O328      0.74990  1_655   S
    C106   O329      0.55006      .   S
    C33    O329      0.55006      .   S
    C86    O330      0.74984      .   S
    C84    O330      0.74984      .   S
    C86    O331      0.55005      .   S
    C13    O331      0.55005      .   S
    C104   O332      0.66614      .   S
    C174   O332      0.66614      .   S
    C84    O333      0.66641      .   S
    C169   O333      0.66641      .   S
    C96    O334      0.75019      .   S
    C98    O334      0.75019      .   S
    C96    O335      0.66664      .   S
    C172   O335      0.66664      .   S
    C88    O336      0.74979      .   S
    C90    O336      0.74979      .   S
    C88    O337      0.66645      .   S
    C170   O337      0.66645      .   S
    C98    O338      0.54996      .   S
    C25    O338      0.54996      .   S
    C98    O339      0.55253      .   S
    C24    O339      0.55253      .   S
    C90    O340      0.55002      .   S
    C17    O340      0.55002      .   S
    C90    O341      0.55254      .   S
    C16    O341      0.55254      .   S
    C174   O342      0.69730      .   S
    C170   O342      0.69730      .   S
    C174   O343      1.01661      .   S
    C1     O343      1.01661      .   S
    C169   O344      0.69757  1_655   S
    C172   O344      0.69757      .   S
    C169   O345      1.01646      .   S
    C1     O345      1.01646      .   S
    C172   O346      1.01614      .   S
    C3     O346      1.01614      .   S
    C170   O347      1.01625      .   S
    C2     O347      1.01625      .   S
    C163   O348      1.33970      .   S
    C3     O348      1.33970      .   S
    C160   O349      1.34039      .   S
    C2     O349      1.34039      .   S
    C1     O350      1.34007      .   S
    C161   O350      1.34007      .   S
    C3     O351      1.01604      .   S
    C171   O351      1.01604      .   S
    C2     O352      1.33977      .   S
    C162   O352      1.33977      .   S
    C2     O353      1.01371      .   S
    C173   O353      1.01371      .   S
    C0     O354      1.01620      .   S
    C175   O354      1.01620      .   S
    C0     O355      1.01611      .   S
    C168   O355      1.01611      .   S
    C28    O356      0.55253      .   S
    C102   O356      0.55253      .   S
    C20    O357      0.55253      .   S
    C94    O357      0.55253      .   S
    C173   O358      0.69592      .   S
    C168   O358      0.69592      .   S
    C173   O359      0.67063      .   S
    C100   O359      0.67063      .   S
    C171   O360      0.69745      .   S
    C175   O360      0.69745      .   S
    C171   O361      0.66635      .   S
    C92    O361      0.66635      .   S
    C175   O362      0.66642      .   S
    C108   O362      0.66642      .   S
    C168   O363      0.66646      .   S
    C80    O363      0.66646      .   S
    C21    O364      0.55004      .   S
    C94    O364      0.55004      .   S
    C29    O365      0.55007      .   S
    C102   O365      0.55007      .   S
    C37    O366      0.55005      .   S
    C110   O366      0.55005      .   S
    C9     O367      0.55009      .   S
    C82    O367      0.55009      .   S
    C102   O368      0.74980      .   S
    C100   O368      0.74980      .   S
    C102   O369      0.76418      .   S
    C103   O369      0.76418      .   S
    C94    O370      0.74978      .   S
    C92    O370      0.74978  1_455   S
    C94    O371      0.76410      .   S
    C95    O371      0.76410      .   S
    C92    O372      0.71506      .   S
    C93    O372      0.71506  1_655   S
    C100   O373      0.71484      .   S
    C101   O373      0.71484      .   S
    C38    O374      0.55100      .   S
    C111   O374      0.55100      .   S
    C10    O375      0.55149      .   S
    C83    O375      0.55149      .   S
    C108   O376      0.74981      .   S
    C110   O376      0.74981      .   S
    C108   O377      0.71479      .   S
    C109   O377      0.71479      .   S
    C80    O378      0.74983      .   S
    C82    O378      0.74983      .   S
    C80    O379      0.71485      .   S
    C81    O379      0.71485      .   S
    C110   O380      0.76398      .   S
    C111   O380      0.76398      .   S
    C110   O381      0.55255      .   S
    C36    O381      0.55255      .   S
    C82    O382      0.76419      .   S
    C83    O382      0.76419      .   S
    C82    O383      0.55254      .   S
    C8     O383      0.55254      .   S
    C77    O384      0.55507      .   S
    C155   O384      0.55507      .   S
    C75    O385      0.55506      .   S
    C151   O385      0.55506      .   S
    C31    O386      0.54926      .   S
    C103   O386      0.54926      .   S
    C23    O387      0.54917      .   S
    C95    O387      0.54917      .   S
    C93    O388      0.71467  1_655   S
    C109   O388      0.71467      .   S
    C93    O389      0.70500      .   S
    C150   O389      0.70500      .   S
    C101   O390      0.71467      .   S
    C81    O390      0.71467      .   S
    C101   O391      0.70491      .   S
    C154   O391      0.70491  1_565   S
    C103   O392      0.76492      .   S
    C155   O392      0.76492  1_565   S
    C103   O393      0.55131      .   S
    C30    O393      0.55131      .   S
    C95    O394      0.76515      .   S
    C151   O394      0.76515      .   S
    C95    O395      0.55144      .   S
    C22    O395      0.55144      .   S
    C111   O396      0.54946      .   S
    C39    O396      0.54946      .   S
    C83    O397      0.54926      .   S
    C11    O397      0.54926      .   S
    C155   O398      0.75423      .   S
    C154   O398      0.75423      .   S
    C151   O399      0.75425      .   S
    C150   O399      0.75425      .   S
