# CIF file generated by openbabel 2.4.90, see http://openbabel.sf.net
data_I
_chemical_name_common ''
_cell_length_a 13.215
_cell_length_b 17.408
_cell_length_c 17.409
_cell_angle_alpha 81.734
_cell_angle_beta 67.678
_cell_angle_gamma 67.69
_space_group_name_H-M_alt 'P 1'
_space_group_name_Hall 'P 1'
loop_
    _symmetry_equiv_pos_as_xyz
    x,y,z
loop_
    _atom_site_label
    _atom_site_type_symbol
    _atom_site_fract_x
    _atom_site_fract_y
    _atom_site_fract_z
    _atom_site_occupancy
    Zr0     Zr   0.36256   0.24984   0.77479   1.000
    Zr1     Zr   0.88730   0.25008   0.72528   1.000
    Zr2     Zr   0.63736   0.22527   0.75014   1.000
    Zr3     Zr   0.11274   0.27477   0.74989   1.000
    Zr4     Zr   0.63743   0.75017   0.22520   1.000
    Zr5     Zr   0.11266   0.74990   0.27476   1.000
    Zr6     Zr   0.36259   0.77475   0.24988   1.000
    Zr7     Zr   0.88722   0.72520   0.25016   1.000
    Zr8     Zr   0.49995   0.32941   0.67066   1.000
    Zr9     Zr   0.99999   0.17064   0.82942   1.000
    Zr10    Zr   0.67047   0.32955   0.82952   1.000
    Zr11    Zr   0.32951   0.17051   0.67040   1.000
    Zr12    Zr   0.50002   0.67059   0.32934   1.000
    Zr13    Zr   0.99997   0.82936   0.17063   1.000
    Zr14    Zr   0.32947   0.67048   0.17052   1.000
    Zr15    Zr   0.67046   0.82947   0.32955   1.000
    O16     O    0.22107   0.71019   0.22264   1.000
    O17     O    0.05632   0.78963   0.22270   1.000
    O18     O    0.43130   0.72267   0.28961   1.000
    O19     O    0.77884   0.77733   0.28986   1.000
    O20     O    0.22113   0.22264   0.71015   1.000
    O21     O    0.56866   0.27734   0.71040   1.000
    O22     O    0.94364   0.21036   0.77735   1.000
    O23     O    0.65391   0.27741   0.78983   1.000
    N24     N    0.75420   0.98453   0.51569   1.000
    N25     N    0.75424   0.51568   0.98448   1.000
    N26     N    0.24575   0.48431   0.01548   1.000
    N27     N    0.23014   0.51558   0.51548   1.000
    N28     N    0.76119   0.98454   0.98441   1.000
    N29     N    0.76982   0.48440   0.48457   1.000
    N30     N    0.24573   0.01548   0.48434   1.000
    N31     N    0.23879   0.01547   0.01558   1.000
    C32     C    0.50004   0.89291   0.10707   1.000
    O33     O    0.54865   0.84292   0.14841   1.000
    O34     O    0.60895   0.91093   0.07293   1.000
    O35     O    0.39110   0.92702   0.08910   1.000
    O36     O    0.41244   0.94595   0.06633   1.000
    O37     O    0.45142   0.85154   0.15708   1.000
    O38     O    0.58759   0.93369   0.05400   1.000
    C39     C    0.99992   0.60708   0.39293   1.000
    O40     O    0.09273   0.58911   0.42703   1.000
    O41     O    0.95996   0.64843   0.34293   1.000
    O42     O    0.03988   0.65710   0.35155   1.000
    O43     O    0.07523   0.56634   0.44597   1.000
    O44     O    0.92466   0.55400   0.43372   1.000
    O45     O    0.90714   0.57293   0.41095   1.000
    C46     C    0.89293   0.60714   0.10712   1.000
    O47     O    0.85838   0.56641   0.05404   1.000
    O48     O    0.81810   0.58920   0.07299   1.000
    O49     O    0.01988   0.57293   0.08911   1.000
    O50     O    0.80297   0.65721   0.14848   1.000
    O51     O    0.89146   0.64848   0.15719   1.000
    O52     O    0.02127   0.55400   0.06633   1.000
    C53     C    0.10702   0.89286   0.39289   1.000
    O54     O    0.97867   0.93366   0.44602   1.000
    O55     O    0.14158   0.94593   0.43362   1.000
    O56     O    0.19701   0.85150   0.34281   1.000
    O57     O    0.98008   0.91089   0.42709   1.000
    O58     O    0.10847   0.84281   0.35153   1.000
    O59     O    0.18186   0.92699   0.41083   1.000
    C60     C    0.49994   0.10710   0.89280   1.000
    O61     O    0.58754   0.05405   0.93360   1.000
    O62     O    0.60888   0.07299   0.91083   1.000
    O63     O    0.45133   0.15709   0.85150   1.000
    O64     O    0.54855   0.14848   0.84268   1.000
    O65     O    0.41239   0.06631   0.94593   1.000
    O66     O    0.39103   0.08908   0.92701   1.000
    C67     C    0.10705   0.39286   0.89286   1.000
    O68     O    0.18189   0.41081   0.92698   1.000
    O69     O    0.10852   0.35152   0.84280   1.000
    O70     O    0.14160   0.43359   0.94593   1.000
    O71     O    0.19702   0.34278   0.85152   1.000
    O72     O    0.98011   0.42706   0.91088   1.000
    O73     O    0.97871   0.44600   0.93365   1.000
    C74     C    0.89290   0.10715   0.60715   1.000
    O75     O    0.85835   0.05408   0.56642   1.000
    O76     O    0.89146   0.15719   0.64849   1.000
    O77     O    0.80293   0.14852   0.65721   1.000
    O78     O    0.02125   0.06634   0.55402   1.000
    O79     O    0.01985   0.08912   0.57295   1.000
    O80     O    0.81807   0.07303   0.58920   1.000
    C81     C    0.00003   0.39290   0.60711   1.000
    O82     O    0.96007   0.34289   0.64849   1.000
    O83     O    0.04000   0.35154   0.65711   1.000
    O84     O    0.07529   0.44598   0.56632   1.000
    O85     O    0.09281   0.42705   0.58908   1.000
    O86     O    0.90723   0.41087   0.57301   1.000
    O87     O    0.92472   0.43365   0.55408   1.000
loop_
    _geom_bond_atom_site_label_1
    _geom_bond_atom_site_label_2
    _geom_bond_distance
    _geom_bond_site_symmetry_2
    _ccdc_geom_bond_type
    Zr14   O16       1.33962      .   S
    Zr5    O16       1.33962      .   S
    Zr13   O17       1.34003  1_655   S
    Zr5    O17       1.34003      .   S
    Zr6    O18       1.34039      .   S
    Zr12   O18       1.34039      .   S
    Zr7    O19       1.33946      .   S
    Zr15   O19       1.33946      .   S
    Zr11   O20       1.33970      .   S
    Zr3    O20       1.33970      .   S
    Zr8    O21       1.34039      .   S
    Zr2    O21       1.34039      .   S
    Zr1    O22       1.34007      .   S
    Zr9    O22       1.34007      .   S
    Zr2    O23       1.33977      .   S
    Zr10   O23       1.33977      .   S
    C32    O33       1.19777      .   S
    Zr4    O33       2.21427      .   S
    C32    O34       1.47059      .   S
    N28    O34       2.66430  1_556   S
    C32    O35       1.47049      .   S
    N31    O35       2.66422  1_545   S
    C32    O36       1.52289      .   S
    N31    O36       2.57600  1_545   S
    C32    O37       1.19821      .   S
    Zr6    O37       2.21460      .   S
    C32    O38       1.52295      .   S
    N28    O38       2.57609  1_556   S
    C39    O40       1.47066  1_655   S
    N27    O40       2.66446      .   S
    C39    O41       1.19794      .   S
    Zr7    O41       2.21393      .   S
    C39    O42       1.19815  1_655   S
    Zr5    O42       2.21455      .   S
    C39    O43       1.52307  1_655   S
    N27    O43       2.57623      .   S
    C39    O44       1.52306      .   S
    N29    O44       2.57625      .   S
    C39    O45       1.47067      .   S
    N29    O45       2.66447      .   S
    C46    O47       1.52298      .   S
    N25    O47       2.57609  1_556   S
    C46    O48       1.47052      .   S
    N25    O48       2.66435  1_556   S
    C46    O49       1.47071  1_655   S
    N26    O49       2.66434      .   S
    C46    O50       1.19796      .   S
    Zr4    O50       2.21415      .   S
    C46    O51       1.19800      .   S
    Zr7    O51       2.21405      .   S
    C46    O52       1.52293  1_655   S
    N26    O52       2.57629      .   S
    C53    O54       1.52296  1_455   S
    N24    O54       2.57608      .   S
    C53    O55       1.52293      .   S
    N30    O55       2.57599  1_545   S
    C53    O56       1.19805      .   S
    Zr6    O56       2.21433      .   S
    C53    O57       1.47061  1_455   S
    N24    O57       2.66427      .   S
    C53    O58       1.19797      .   S
    Zr5    O58       2.21411      .   S
    C53    O59       1.47053      .   S
    N30    O59       2.66419  1_545   S
    C60    O61       1.52364      .   S
    N28    O61       2.57666  1_565   S
    C60    O62       1.47108      .   S
    N28    O62       2.66496  1_565   S
    C60    O63       1.19726      .   S
    Zr0    O63       2.21329      .   S
    C60    O64       1.19898      .   S
    Zr2    O64       2.21265      .   S
    C60    O65       1.52322      .   S
    N31    O65       2.57617  1_554   S
    C60    O66       1.47058      .   S
    N31    O66       2.66453  1_554   S
    C67    O68       1.47059      .   S
    N26    O68       2.66418  1_554   S
    C67    O69       1.19779      .   S
    Zr3    O69       2.21376      .   S
    C67    O70       1.52294      .   S
    N26    O70       2.57604  1_554   S
    C67    O71       1.19793      .   S
    Zr0    O71       2.21405      .   S
    C67    O72       1.47066  1_455   S
    N25    O72       2.66423      .   S
    C67    O73       1.52294  1_455   S
    N25    O73       2.57612      .   S
    C74    O75       1.52284      .   S
    N24    O75       2.57598  1_565   S
    C74    O76       1.19776      .   S
    Zr1    O76       2.21429      .   S
    C74    O77       1.19802      .   S
    Zr2    O77       2.21421      .   S
    C74    O78       1.52292  1_655   S
    N30    O78       2.57616      .   S
    C74    O79       1.47064  1_655   S
    N30    O79       2.66429      .   S
    C74    O80       1.47046      .   S
    N24    O80       2.66417  1_565   S
    C81    O82       1.19815  1_455   S
    Zr1    O82       2.21454      .   S
    C81    O83       1.19805      .   S
    Zr3    O83       2.21411      .   S
    C81    O84       1.52305      .   S
    N27    O84       2.57625      .   S
    C81    O85       1.47066      .   S
    N27    O85       2.66445      .   S
    C81    O86       1.47059  1_455   S
    N29    O86       2.66441      .   S
    C81    O87       1.52301  1_455   S
    N29    O87       2.57617      .   S
