# CIF file generated by openbabel 2.4.90, see http://openbabel.sf.net
data_I
_chemical_name_common ''
_cell_length_a 20.521
_cell_length_b 16.616
_cell_length_c 19.798
_cell_angle_alpha 89.965
_cell_angle_beta 101.651
_cell_angle_gamma 90.041
_space_group_name_H-M_alt 'P 1'
_space_group_name_Hall 'P 1'
loop_
    _symmetry_equiv_pos_as_xyz
    x,y,z
loop_
    _atom_site_label
    _atom_site_type_symbol
    _atom_site_fract_x
    _atom_site_fract_y
    _atom_site_fract_z
    _atom_site_occupancy
    N0      N    0.39700   0.23406   0.96436   1.000
    N1      N    0.89700   0.23406   0.96436   1.000
    N2      N    0.60299   0.73406   0.03537   1.000
    N3      N    0.10299   0.73406   0.03534   1.000
    Zr4     Zr   0.25862   0.34010   0.37986   1.000
    O5      O    0.22176   0.45407   0.29304   1.000
    Zr6     Zr   0.75862   0.34011   0.37988   1.000
    O7      O    0.72176   0.45408   0.29307   1.000
    Zr8     Zr   0.36370   0.41981   0.48070   1.000
    O9      O    0.29322   0.51152   0.36851   1.000
    O10     O    0.37937   0.36862   0.34451   1.000
    O11     O    0.37007   0.36481   0.61088   1.000
    Zr12    Zr   0.63635   0.91971   0.51915   1.000
    O13     O    0.70683   0.01145   0.63132   1.000
    O14     O    0.62996   0.86475   0.38895   1.000
    O15     O    0.62066   0.86856   0.65532   1.000
    Zr16    Zr   0.86370   0.41981   0.48070   1.000
    O17     O    0.87008   0.36481   0.61088   1.000
    O18     O    0.79322   0.51152   0.36852   1.000
    O19     O    0.87938   0.36863   0.34451   1.000
    Zr20    Zr   0.24135   0.84001   0.62002   1.000
    O21     O    0.27821   0.95399   0.70681   1.000
    Zr22    Zr   0.74135   0.84002   0.62005   1.000
    O23     O    0.77821   0.95399   0.70683   1.000
    Zr24    Zr   0.13635   0.91970   0.51912   1.000
    O25     O    0.12066   0.86856   0.65529   1.000
    O26     O    0.12997   0.86474   0.38892   1.000
    O27     O    0.20683   0.01144   0.63130   1.000
    O28     O    0.69994   0.80822   0.72037   1.000
    O29     O    0.84287   0.81272   0.72738   1.000
    O30     O    0.34286   0.81271   0.72736   1.000
    O31     O    0.19995   0.80821   0.72034   1.000
    O32     O    0.30002   0.30833   0.27947   1.000
    O33     O    0.15711   0.31277   0.27248   1.000
    O34     O    0.65711   0.31277   0.27250   1.000
    O35     O    0.80002   0.30835   0.27948   1.000
loop_
    _geom_bond_atom_site_label_1
    _geom_bond_atom_site_label_2
    _geom_bond_distance
    _geom_bond_site_symmetry_2
    _ccdc_geom_bond_type
    Zr4    O5        2.56624      .   S
    N3     O5        6.96988      .   S
    Zr6    O7        2.56617      .   S
    N2     O7        6.96972      .   S
    Zr8    O9        2.83712      .   S
    N3     O9        7.87467      .   S
    Zr8    O10       2.90697      .   S
    N0     O10       7.93071  1_556   S
    Zr8    O11       2.71208      .   S
    N0     O11       7.24026      .   S
    Zr12   O13       2.83732  1_565   S
    N1     O13       7.87415      .   S
    Zr12   O14       2.71337      .   S
    N2     O14       7.24406      .   S
    Zr12   O15       2.90534      .   S
    N2     O15       7.92596  1_554   S
    Zr16   O17       2.71212      .   S
    N1     O17       7.24028      .   S
    Zr16   O18       2.83696      .   S
    N2     O18       7.87442      .   S
    Zr16   O19       2.90695      .   S
    N1     O19       7.93073  1_556   S
    Zr20   O21       2.56679      .   S
    N0     O21       6.97061  1_545   S
    Zr22   O23       2.56665      .   S
    N1     O23       6.97033  1_545   S
    Zr24   O25       2.90531      .   S
    N3     O25       7.92602  1_554   S
    Zr24   O26       2.71334      .   S
    N3     O26       7.24390      .   S
    Zr24   O27       2.83747  1_565   S
    N0     O27       7.87444      .   S
    Zr22   O28       2.37177      .   S
    N2     O28       7.02622  1_554   S
    Zr22   O29       2.69683      .   S
    N3     O29       7.36428  1_454   S
    Zr20   O30       2.69699      .   S
    N2     O30       7.36479  1_554   S
    Zr20   O31       2.37170      .   S
    N3     O31       7.02633  1_554   S
    Zr4    O32       2.37385      .   S
    N0     O32       7.03070  1_556   S
    Zr4    O33       2.69748      .   S
    N1     O33       7.36624  1_656   S
    Zr6    O34       2.69750      .   S
    N0     O34       7.36653  1_556   S
    Zr6    O35       2.37401      .   S
    N1     O35       7.03093  1_556   S
