# CIF file generated by openbabel 2.4.90, see http://openbabel.sf.net
data_I
_chemical_name_common ''
_cell_length_a 20.521
_cell_length_b 16.616
_cell_length_c 19.798
_cell_angle_alpha 89.965
_cell_angle_beta 101.651
_cell_angle_gamma 90.041
_space_group_name_H-M_alt 'P 1'
_space_group_name_Hall 'P 1'
loop_
    _symmetry_equiv_pos_as_xyz
    x,y,z
loop_
    _atom_site_label
    _atom_site_type_symbol
    _atom_site_fract_x
    _atom_site_fract_y
    _atom_site_fract_z
    _atom_site_occupancy
    Zr0     Zr   0.25862   0.34010   0.37986   1.000
    Zr1     Zr   0.75862   0.34011   0.37988   1.000
    Zr2     Zr   0.36370   0.41981   0.48070   1.000
    Zr3     Zr   0.86370   0.41981   0.48070   1.000
    Zr4     Zr   0.24135   0.84001   0.62002   1.000
    Zr5     Zr   0.74135   0.84002   0.62005   1.000
    Zr6     Zr   0.13635   0.91970   0.51912   1.000
    Zr7     Zr   0.63635   0.91971   0.51915   1.000
    N8      N    0.39700   0.23406   0.96436   1.000
    O9      O    0.55854   0.27844   0.15332   1.000
    O10     O    0.55267   0.29242   0.17690   1.000
    O11     O    0.39504   0.31744   0.20831   1.000
    O12     O    0.34883   0.28160   0.16341   1.000
    O13     O    0.33403   0.27152   0.19474   1.000
    O14     O    0.37645   0.30981   0.74105   1.000
    O15     O    0.27731   0.10317   0.74348   1.000
    O16     O    0.31507   0.06797   0.79360   1.000
    N17     N    0.89700   0.23406   0.96436   1.000
    O18     O    0.05267   0.29242   0.17689   1.000
    O19     O    0.89505   0.31745   0.20832   1.000
    O20     O    0.84883   0.28163   0.16341   1.000
    O21     O    0.83403   0.27153   0.19474   1.000
    O22     O    0.87646   0.30981   0.74105   1.000
    O23     O    0.77731   0.10318   0.74349   1.000
    O24     O    0.81508   0.06797   0.79361   1.000
    O25     O    0.05853   0.27844   0.15329   1.000
    N26     N    0.60299   0.73406   0.03537   1.000
    O27     O    0.66598   0.77150   0.80508   1.000
    O28     O    0.62358   0.80978   0.25875   1.000
    O29     O    0.72274   0.60323   0.25633   1.000
    O30     O    0.68490   0.56805   0.20625   1.000
    O31     O    0.44144   0.77842   0.84649   1.000
    O32     O    0.44732   0.79241   0.82291   1.000
    O33     O    0.60497   0.81741   0.79149   1.000
    O34     O    0.65110   0.78133   0.83630   1.000
    N35     N    0.10299   0.73406   0.03534   1.000
    O36     O    0.16599   0.77151   0.80505   1.000
    O37     O    0.12359   0.80978   0.25872   1.000
    O38     O    0.22275   0.60323   0.25631   1.000
    O39     O    0.18491   0.56804   0.20623   1.000
    O40     O    0.94144   0.77843   0.84650   1.000
    O41     O    0.94732   0.79241   0.82291   1.000
    O42     O    0.10497   0.81741   0.79145   1.000
    O43     O    0.15110   0.78131   0.83625   1.000
loop_
    _geom_bond_atom_site_label_1
    _geom_bond_atom_site_label_2
    _geom_bond_distance
    _geom_bond_site_symmetry_2
    _ccdc_geom_bond_type
    N8     O9        4.52978  1_556   S
    Zr1    O9        5.53070      .   S
    N8     O10       4.83973  1_556   S
    Zr1    O10       5.27049      .   S
    N8     O11       5.03345  1_556   S
    Zr2    O11       5.81394      .   S
    N8     O12       4.32553  1_556   S
    Zr0    O12       5.09386      .   S
    N8     O13       5.02455  1_556   S
    Zr0    O13       4.40732      .   S
    N8     O14       4.53302      .   S
    Zr2    O14       5.42415      .   S
    N8     O15       5.05477      .   S
    Zr6    O15       5.67494  1_565   S
    N8     O16       4.42496      .   S
    Zr4    O16       5.13357  1_565   S
    N17    O18       4.83959  1_656   S
    Zr0    O18       5.27033      .   S
    N17    O19       5.03349  1_556   S
    Zr3    O19       5.81391      .   S
    N17    O20       4.32557  1_556   S
    Zr1    O20       5.09419      .   S
    N17    O21       5.02466  1_556   S
    Zr1    O21       4.40762      .   S
    N17    O22       4.53299      .   S
    Zr3    O22       5.42423      .   S
    N17    O23       5.05464      .   S
    Zr7    O23       5.67464  1_565   S
    N17    O24       4.42483      .   S
    Zr5    O24       5.13330  1_565   S
    N17    O25       4.52939  1_656   S
    Zr0    O25       5.53078      .   S
    N26    O27       5.02202  1_554   S
    Zr5    O27       4.40315      .   S
    N26    O28       4.53553      .   S
    Zr7    O28       5.42674      .   S
    N26    O29       5.05533      .   S
    Zr3    O29       5.67391      .   S
    N26    O30       4.42477      .   S
    Zr1    O30       5.13235      .   S
    N26    O31       4.52880  1_554   S
    Zr4    O31       5.52943      .   S
    N26    O32       4.83828  1_554   S
    Zr4    O32       5.26971      .   S
    N26    O33       5.03033  1_554   S
    Zr7    O33       5.81068      .   S
    N26    O34       4.32343  1_554   S
    Zr5    O34       5.08958      .   S
    N35    O36       5.02215  1_554   S
    Zr4    O36       4.40303      .   S
    N35    O37       4.53540      .   S
    Zr6    O37       5.42668      .   S
    N35    O38       5.05540      .   S
    Zr2    O38       5.67424      .   S
    N35    O39       4.42487      .   S
    Zr0    O39       5.13248      .   S
    N35    O40       4.52834  1_454   S
    Zr5    O40       5.52922      .   S
    N35    O41       4.83803  1_454   S
    Zr5    O41       5.26931      .   S
    N35    O42       5.03043  1_554   S
    Zr6    O42       5.81062      .   S
    N35    O43       4.32366  1_554   S
    Zr4    O43       5.08941      .   S
