# CIF file generated by openbabel 2.4.90, see http://openbabel.sf.net
data_I
_chemical_name_common ''
_cell_length_a 20.521
_cell_length_b 16.616
_cell_length_c 19.798
_cell_angle_alpha 89.965
_cell_angle_beta 101.651
_cell_angle_gamma 90.041
_space_group_name_H-M_alt 'P 1'
_space_group_name_Hall 'P 1'
loop_
    _symmetry_equiv_pos_as_xyz
    x,y,z
loop_
    _atom_site_label
    _atom_site_type_symbol
    _atom_site_fract_x
    _atom_site_fract_y
    _atom_site_fract_z
    _atom_site_occupancy
    N0      N    0.39700   0.23406   0.96436   1.000
    N1      N    0.89700   0.23406   0.96436   1.000
    N2      N    0.60299   0.73406   0.03537   1.000
    N3      N    0.10299   0.73406   0.03534   1.000
    Zr4     Zr   0.25862   0.34010   0.37986   1.000
    O5      O    0.15858   0.30927   0.26658   1.000
    O6      O    0.22176   0.45407   0.29304   1.000
    O7      O    0.30372   0.31085   0.27164   1.000
    O8      O    0.29632   0.30581   0.28730   1.000
    O9      O    0.15564   0.31626   0.27838   1.000
    Zr10    Zr   0.75862   0.34011   0.37988   1.000
    O11     O    0.72176   0.45408   0.29307   1.000
    O12     O    0.65564   0.31627   0.27839   1.000
    O13     O    0.65858   0.30928   0.26660   1.000
    O14     O    0.79633   0.30582   0.28731   1.000
    O15     O    0.80372   0.31087   0.27164   1.000
    Zr16    Zr   0.36370   0.41981   0.48070   1.000
    O17     O    0.29322   0.51152   0.36851   1.000
    O18     O    0.37937   0.36862   0.34451   1.000
    O19     O    0.37007   0.36481   0.61088   1.000
    Zr20    Zr   0.63635   0.91971   0.51915   1.000
    O21     O    0.70683   0.01145   0.63132   1.000
    O22     O    0.62996   0.86475   0.38895   1.000
    O23     O    0.62066   0.86856   0.65532   1.000
    Zr24    Zr   0.86370   0.41981   0.48070   1.000
    O25     O    0.87008   0.36481   0.61088   1.000
    O26     O    0.79322   0.51152   0.36852   1.000
    O27     O    0.87938   0.36863   0.34451   1.000
    Zr28    Zr   0.24135   0.84001   0.62002   1.000
    O29     O    0.19622   0.81066   0.72814   1.000
    O30     O    0.34434   0.81621   0.72147   1.000
    O31     O    0.34139   0.80921   0.73325   1.000
    O32     O    0.20367   0.80576   0.71253   1.000
    O33     O    0.27821   0.95399   0.70681   1.000
    Zr34    Zr   0.74135   0.84002   0.62005   1.000
    O35     O    0.84433   0.81621   0.72148   1.000
    O36     O    0.84140   0.80922   0.73327   1.000
    O37     O    0.77821   0.95399   0.70683   1.000
    O38     O    0.70366   0.80576   0.71256   1.000
    O39     O    0.69623   0.81067   0.72817   1.000
    Zr40    Zr   0.13635   0.91970   0.51912   1.000
    O41     O    0.12066   0.86856   0.65529   1.000
    O42     O    0.12997   0.86474   0.38892   1.000
    O43     O    0.20683   0.01144   0.63130   1.000
loop_
    _geom_bond_atom_site_label_1
    _geom_bond_atom_site_label_2
    _geom_bond_distance
    _geom_bond_site_symmetry_2
    _ccdc_geom_bond_type
    Zr4    O5        2.76539      .   S
    N1     O5        7.29401  1_656   S
    Zr4    O6        2.56624      .   S
    N3     O6        6.96988      .   S
    Zr4    O7        2.54693      .   S
    N0     O7        6.85695  1_556   S
    Zr4    O8        2.20366      .   S
    N0     O8        7.20530  1_556   S
    Zr4    O9        2.63516      .   S
    N1     O9        7.44036  1_656   S
    Zr10   O11       2.56617      .   S
    N2     O11       6.96972      .   S
    Zr10   O12       2.63525      .   S
    N0     O12       7.44059  1_556   S
    Zr10   O13       2.76535      .   S
    N0     O13       7.29436  1_556   S
    Zr10   O14       2.20381      .   S
    N1     O14       7.20555  1_556   S
    Zr10   O15       2.54709      .   S
    N1     O15       6.85717  1_556   S
    Zr16   O17       2.83712      .   S
    N3     O17       7.87467      .   S
    Zr16   O18       2.90697      .   S
    N0     O18       7.93071  1_556   S
    Zr16   O19       2.71208      .   S
    N0     O19       7.24026      .   S
    Zr20   O21       2.83732  1_565   S
    N1     O21       7.87415      .   S
    Zr20   O22       2.71337      .   S
    N2     O22       7.24406      .   S
    Zr20   O23       2.90534      .   S
    N2     O23       7.92596  1_554   S
    Zr24   O25       2.71212      .   S
    N1     O25       7.24028      .   S
    Zr24   O26       2.83696      .   S
    N2     O26       7.87442      .   S
    Zr24   O27       2.90695      .   S
    N1     O27       7.93073  1_556   S
    Zr28   O29       2.54471      .   S
    N3     O29       6.85266  1_554   S
    Zr28   O30       2.63486      .   S
    N2     O30       7.43874  1_554   S
    Zr28   O31       2.76472      .   S
    N2     O31       7.29274  1_554   S
    Zr28   O32       2.20152      .   S
    N3     O32       7.20082  1_554   S
    Zr28   O33       2.56679      .   S
    N0     O33       6.97061  1_545   S
    Zr34   O35       2.63466      .   S
    N3     O35       7.43828  1_454   S
    Zr34   O36       2.76461      .   S
    N3     O36       7.29219  1_454   S
    Zr34   O37       2.56665      .   S
    N1     O37       6.97033  1_545   S
    Zr34   O38       2.20158      .   S
    N2     O38       7.20073  1_554   S
    Zr34   O39       2.54479      .   S
    N2     O39       6.85254  1_554   S
    Zr40   O41       2.90531      .   S
    N3     O41       7.92602  1_554   S
    Zr40   O42       2.71334      .   S
    N3     O42       7.24390      .   S
    Zr40   O43       2.83747  1_565   S
    N0     O43       7.87444      .   S
