# CIF file generated by openbabel 2.4.90, see http://openbabel.sf.net
data_I
_chemical_name_common ''
_cell_length_a 13.585
_cell_length_b 14.447
_cell_length_c 14.451
_cell_angle_alpha 69.286
_cell_angle_beta 71.796
_cell_angle_gamma 108.206
_space_group_name_H-M_alt 'P 1'
_space_group_name_Hall 'P 1'
loop_
    _symmetry_equiv_pos_as_xyz
    x,y,z
loop_
    _atom_site_label
    _atom_site_type_symbol
    _atom_site_fract_x
    _atom_site_fract_y
    _atom_site_fract_z
    _atom_site_occupancy
    N0      N    0.88721   0.34788   0.05167   1.000
    N1      N    0.06102   0.94882   0.39909   1.000
    N2      N    0.11278   0.65216   0.94834   1.000
    N3      N    0.06530   0.35572   0.32967   1.000
    N4      N    0.93898   0.05122   0.60091   1.000
    N5      N    0.39476   0.32943   0.31477   1.000
    N6      N    0.46106   0.39926   0.65215   1.000
    N7      N    0.29022   0.68504   0.64437   1.000
    N8      N    0.93469   0.64432   0.67032   1.000
    N9      N    0.53893   0.60077   0.34786   1.000
    N10     N    0.60523   0.67060   0.68522   1.000
    N11     N    0.70977   0.31499   0.35564   1.000
    Zr12    Zr   0.73232   0.54519   0.58803   1.000
    O13     O    0.64711   0.50072   0.60154   1.000
    O14     O    0.69131   0.58205   0.62522   1.000
    O15     O    0.80121   0.57609   0.61125   1.000
    Zr16    Zr   0.02479   0.54644   0.83050   1.000
    O17     O    0.05037   0.58690   0.86497   1.000
    O18     O    0.10868   0.58521   0.76936   1.000
    O19     O    0.98491   0.47820   0.89798   1.000
    O20     O    0.98824   0.57115   0.78407   1.000
    Zr21    Zr   0.26768   0.45484   0.41197   1.000
    O22     O    0.35289   0.49931   0.39846   1.000
    O23     O    0.30869   0.41798   0.37477   1.000
    O24     O    0.19878   0.42394   0.38875   1.000
    Zr25    Zr   0.52195   0.37718   0.45341   1.000
    O26     O    0.49364   0.37625   0.52169   1.000
    O27     O    0.53656   0.45214   0.41300   1.000
    O28     O    0.47677   0.35474   0.41461   1.000
    O29     O    0.58321   0.35553   0.42872   1.000
    Zr30    Zr   0.14475   0.16924   0.37718   1.000
    O31     O    0.11706   0.10205   0.37618   1.000
    O32     O    0.08469   0.13471   0.45217   1.000
    O33     O    0.22764   0.21565   0.35547   1.000
    O34     O    0.12201   0.23054   0.35480   1.000
    Zr35    Zr   0.67990   0.41219   0.13306   1.000
    O36     O    0.68368   0.37499   0.20713   1.000
    O37     O    0.75163   0.39862   0.10225   1.000
    O38     O    0.58759   0.38876   0.18728   1.000
    Zr39    Zr   0.32010   0.58784   0.86694   1.000
    O40     O    0.31631   0.62505   0.79287   1.000
    O41     O    0.24836   0.60141   0.89775   1.000
    O42     O    0.41240   0.61127   0.81271   1.000
    Zr43    Zr   0.85524   0.83079   0.62280   1.000
    O44     O    0.87798   0.76949   0.64518   1.000
    O45     O    0.88293   0.89799   0.62381   1.000
    O46     O    0.91530   0.86532   0.54782   1.000
    O47     O    0.77235   0.78438   0.64451   1.000
    Zr48    Zr   0.18666   0.86710   0.54522   1.000
    O49     O    0.14586   0.89806   0.50065   1.000
    O50     O    0.22472   0.81274   0.57611   1.000
    O51     O    0.10896   0.79300   0.58199   1.000
    Zr52    Zr   0.81334   0.13293   0.45478   1.000
    O53     O    0.77527   0.18730   0.42389   1.000
    O54     O    0.89104   0.20703   0.41801   1.000
    O55     O    0.85413   0.10197   0.49936   1.000
    Zr56    Zr   0.47804   0.62285   0.54659   1.000
    O57     O    0.46343   0.54790   0.58700   1.000
    O58     O    0.41678   0.64450   0.57128   1.000
    O59     O    0.50636   0.62379   0.47832   1.000
    O60     O    0.52323   0.64529   0.58539   1.000
    Zr61    Zr   0.97520   0.45360   0.16950   1.000
    O62     O    0.94962   0.41313   0.13503   1.000
    O63     O    0.89131   0.41482   0.23064   1.000
    O64     O    0.01175   0.42889   0.21593   1.000
    O65     O    0.01508   0.52183   0.10202   1.000
loop_
    _geom_bond_atom_site_label_1
    _geom_bond_atom_site_label_2
    _geom_bond_distance
    _geom_bond_site_symmetry_2
    _ccdc_geom_bond_type
    Zr12   O13       1.04696      .   S
    N6     O13       2.20073      .   S
    Zr12   O14       1.04095      .   S
    N10    O14       2.20043      .   S
    Zr12   O15       1.10853      .   S
    N8     O15       2.33115      .   S
    Zr16   O17       0.94763      .   S
    N2     O17       2.00019      .   S
    Zr16   O18       1.00748      .   S
    N7     O18       2.13921      .   S
    Zr16   O19       0.93398  1_455   S
    N0     O19       1.96920  1_554   S
    Zr16   O20       0.98672  1_455   S
    N8     O20       2.08499      .   S
    Zr21   O22       1.04696      .   S
    N9     O22       2.20074      .   S
    Zr21   O23       1.04102      .   S
    N5     O23       2.20049      .   S
    Zr21   O24       1.10855      .   S
    N3     O24       2.33120      .   S
    Zr25   O26       0.93372      .   S
    N6     O26       1.96848      .   S
    Zr25   O27       0.94817      .   S
    N9     O27       2.00150      .   S
    Zr25   O28       1.00780      .   S
    N5     O28       2.13991      .   S
    Zr25   O29       0.98677      .   S
    N11    O29       2.08493      .   S
    Zr30   O31       0.93233      .   S
    N1     O31       1.96485  1_565   S
    Zr30   O32       0.94853      .   S
    N4     O32       2.00229  1_655   S
    Zr30   O33       0.98723      .   S
    N5     O33       2.08616      .   S
    Zr30   O34       1.00756      .   S
    N3     O34       2.13925      .   S
    Zr35   O36       1.04015      .   S
    N11    O36       2.19862      .   S
    Zr35   O37       1.04715      .   S
    N0     O37       2.20127      .   S
    Zr35   O38       1.11094      .   S
    N5     O38       2.33568      .   S
    Zr39   O40       1.04012      .   S
    N7     O40       2.19860      .   S
    Zr39   O41       1.04716      .   S
    N2     O41       2.20127      .   S
    Zr39   O42       1.11097      .   S
    N10    O42       2.33572      .   S
    Zr43   O44       1.00757      .   S
    N8     O44       2.13925      .   S
    Zr43   O45       0.93239      .   S
    N4     O45       1.96492  1_545   S
    Zr43   O46       0.94845      .   S
    N1     O46       2.00218  1_455   S
    Zr43   O47       0.98722      .   S
    N10    O47       2.08617      .   S
    Zr48   O49       1.04699      .   S
    N1     O49       2.20088      .   S
    Zr48   O50       1.11065      .   S
    N7     O50       2.33556      .   S
    Zr48   O51       1.04100      .   S
    N8     O51       2.20059  1_655   S
    Zr52   O53       1.11064      .   S
    N11    O53       2.33556      .   S
    Zr52   O54       1.04100      .   S
    N3     O54       2.20058  1_455   S
    Zr52   O55       1.04701      .   S
    N4     O55       2.20088      .   S
    Zr56   O57       0.94817      .   S
    N6     O57       2.00151      .   S
    Zr56   O58       0.98677      .   S
    N7     O58       2.08494      .   S
    Zr56   O59       0.93369      .   S
    N9     O59       1.96845      .   S
    Zr56   O60       1.00768      .   S
    N10    O60       2.13980      .   S
    Zr61   O62       0.94761      .   S
    N0     O62       2.00019      .   S
    Zr61   O63       1.00749      .   S
    N11    O63       2.13922      .   S
    Zr61   O64       0.98671  1_655   S
    N3     O64       2.08493      .   S
    Zr61   O65       0.93398  1_655   S
    N2     O65       1.96919  1_556   S
