# CIF file generated by openbabel 2.4.90, see http://openbabel.sf.net
data_I
_chemical_name_common ''
_cell_length_a 13.585
_cell_length_b 14.447
_cell_length_c 14.451
_cell_angle_alpha 69.286
_cell_angle_beta 71.796
_cell_angle_gamma 108.206
_space_group_name_H-M_alt 'P 1'
_space_group_name_Hall 'P 1'
loop_
    _symmetry_equiv_pos_as_xyz
    x,y,z
loop_
    _atom_site_label
    _atom_site_type_symbol
    _atom_site_fract_x
    _atom_site_fract_y
    _atom_site_fract_z
    _atom_site_occupancy
    Zr0     Zr   0.14475   0.16924   0.37718   1.000
    Zr1     Zr   0.18666   0.86710   0.54522   1.000
    Zr2     Zr   0.52195   0.37718   0.45341   1.000
    Zr3     Zr   0.73232   0.54519   0.58803   1.000
    Zr4     Zr   0.97520   0.45360   0.16950   1.000
    Zr5     Zr   0.32010   0.58784   0.86694   1.000
    Zr6     Zr   0.85524   0.83079   0.62280   1.000
    Zr7     Zr   0.81334   0.13293   0.45478   1.000
    Zr8     Zr   0.47804   0.62285   0.54659   1.000
    Zr9     Zr   0.26768   0.45484   0.41197   1.000
    Zr10    Zr   0.02479   0.54644   0.83050   1.000
    Zr11    Zr   0.67990   0.41219   0.13306   1.000
    N12     N    0.68105   0.49026   0.01966   1.000
    N13     N    0.31894   0.50977   0.98033   1.000
    N14     N    0.29884   0.98015   0.51002   1.000
    N15     N    0.80897   0.50988   0.50996   1.000
    N16     N    0.88721   0.34788   0.05167   1.000
    O17     O    0.82337   0.38504   0.07144   1.000
    O18     O    0.94503   0.40997   0.96546   1.000
    O19     O    0.92404   0.37266   0.10056   1.000
    N20     N    0.70115   0.01988   0.48997   1.000
    N21     N    0.06102   0.94882   0.39909   1.000
    O22     O    0.10507   0.92902   0.45607   1.000
    O23     O    0.08937   0.03485   0.37517   1.000
    O24     O    0.97537   0.89986   0.47284   1.000
    N25     N    0.11278   0.65216   0.94834   1.000
    O26     O    0.17662   0.61499   0.92856   1.000
    O27     O    0.05496   0.59006   0.03454   1.000
    O28     O    0.07596   0.62737   0.89945   1.000
    N29     N    0.06530   0.35572   0.32967   1.000
    O30     O    0.09927   0.29185   0.33242   1.000
    O31     O    0.04830   0.40417   0.26235   1.000
    O32     O    0.12989   0.39305   0.36553   1.000
    O33     O    0.96874   0.28113   0.38124   1.000
    N34     N    0.93898   0.05122   0.60091   1.000
    O35     O    0.89493   0.07102   0.54393   1.000
    O36     O    0.91062   0.96518   0.62482   1.000
    O37     O    0.02463   0.10018   0.52716   1.000
    N38     N    0.39476   0.32943   0.31477   1.000
    O39     O    0.43158   0.33230   0.37580   1.000
    O40     O    0.31053   0.26206   0.33377   1.000
    O41     O    0.49528   0.36532   0.24150   1.000
    O42     O    0.34970   0.38113   0.33757   1.000
    N43     N    0.19102   0.49015   0.49003   1.000
    N44     N    0.46106   0.39926   0.65215   1.000
    O45     O    0.56190   0.45626   0.61506   1.000
    O46     O    0.46532   0.37531   0.58996   1.000
    O47     O    0.44883   0.47294   0.62742   1.000
    N48     N    0.29022   0.68504   0.64437   1.000
    O49     O    0.19257   0.62398   0.70823   1.000
    O50     O    0.35552   0.66614   0.59598   1.000
    O51     O    0.26278   0.75837   0.60701   1.000
    O52     O    0.31252   0.66225   0.71881   1.000
    N53     N    0.93469   0.64432   0.67032   1.000
    O54     O    0.90072   0.70818   0.66757   1.000
    O55     O    0.95169   0.59586   0.73765   1.000
    O56     O    0.87010   0.60699   0.63446   1.000
    O57     O    0.03126   0.71890   0.61876   1.000
    N58     N    0.53893   0.60077   0.34786   1.000
    O59     O    0.43810   0.54377   0.38495   1.000
    O60     O    0.53467   0.62472   0.41004   1.000
    O61     O    0.55117   0.52709   0.37258   1.000
    N62     N    0.60523   0.67060   0.68522   1.000
    O63     O    0.56841   0.66773   0.62418   1.000
    O64     O    0.68947   0.73797   0.66622   1.000
    O65     O    0.50471   0.63471   0.75849   1.000
    O66     O    0.65030   0.61891   0.66242   1.000
    N67     N    0.70977   0.31499   0.35564   1.000
    O68     O    0.80742   0.37605   0.29178   1.000
    O69     O    0.64447   0.33389   0.40403   1.000
    O70     O    0.73721   0.24166   0.39300   1.000
    O71     O    0.68747   0.33778   0.28120   1.000
loop_
    _geom_bond_atom_site_label_1
    _geom_bond_atom_site_label_2
    _geom_bond_distance
    _geom_bond_site_symmetry_2
    _ccdc_geom_bond_type
    N16    O17       1.16911      .   S
    Zr11   O17       2.09431      .   S
    N16    O18       1.06367  1_554   S
    Zr10   O18       1.86797  1_455   S
    N16    O19       1.07959      .   S
    Zr4    O19       1.89523      .   S
    N21    O22       1.16887      .   S
    Zr1    O22       2.09399      .   S
    N21    O23       1.06139  1_565   S
    Zr0    O23       1.86467      .   S
    N21    O24       1.08060  1_455   S
    Zr6    O24       1.89690      .   S
    N25    O26       1.16911      .   S
    Zr5    O26       2.09431      .   S
    N25    O27       1.06366  1_556   S
    Zr4    O27       1.86796  1_655   S
    N25    O28       1.07957      .   S
    Zr10   O28       1.89527      .   S
    N29    O30       1.14784      .   S
    Zr0    O30       2.01512      .   S
    N29    O31       1.11776      .   S
    Zr4    O31       1.97343  1_655   S
    N29    O32       1.23103      .   S
    Zr9    O32       2.21710      .   S
    N29    O33       1.17266  1_455   S
    Zr7    O33       2.08199      .   S
    N34    O35       1.16885      .   S
    Zr7    O35       2.09402      .   S
    N34    O36       1.06141  1_545   S
    Zr6    O36       1.86478      .   S
    N34    O37       1.08064  1_655   S
    Zr0    O37       1.89706      .   S
    N38    O39       1.14822      .   S
    Zr2    O39       2.01560      .   S
    N38    O40       1.11840      .   S
    Zr0    O40       1.97447      .   S
    N38    O41       1.23306      .   S
    Zr11   O41       2.22187      .   S
    N38    O42       1.17261      .   S
    Zr9    O42       2.08203      .   S
    N44    O45       1.16877      .   S
    Zr3    O45       2.09392      .   S
    N44    O46       1.06331      .   S
    Zr2    O46       1.86744      .   S
    N44    O47       1.08025      .   S
    Zr8    O47       1.89635      .   S
    N48    O49       1.14787      .   S
    Zr10   O49       2.01497      .   S
    N48    O50       1.11774      .   S
    Zr8    O50       1.97354      .   S
    N48    O51       1.23311      .   S
    Zr1    O51       2.22131      .   S
    N48    O52       1.17170      .   S
    Zr5    O52       2.08024      .   S
    N53    O54       1.14783      .   S
    Zr6    O54       2.01514      .   S
    N53    O55       1.11782      .   S
    Zr10   O55       1.97343  1_455   S
    N53    O56       1.23100      .   S
    Zr3    O56       2.21707      .   S
    N53    O57       1.17267  1_655   S
    Zr1    O57       2.08200      .   S
    N58    O59       1.16877      .   S
    Zr9    O59       2.09393      .   S
    N58    O60       1.06332      .   S
    Zr8    O60       1.86738      .   S
    N58    O61       1.08025      .   S
    Zr2    O61       1.89634      .   S
    N62    O63       1.14823      .   S
    Zr8    O63       2.01536      .   S
    N62    O64       1.11842      .   S
    Zr6    O64       1.97444      .   S
    N62    O65       1.23307      .   S
    Zr5    O65       2.22193      .   S
    N62    O66       1.17260      .   S
    Zr3    O66       2.08191      .   S
    N67    O68       1.14787      .   S
    Zr4    O68       2.01497      .   S
    N67    O69       1.11773      .   S
    Zr2    O69       1.97354      .   S
    N67    O70       1.23311      .   S
    Zr7    O70       2.22129      .   S
    N67    O71       1.17169      .   S
    Zr11   O71       2.08030      .   S
