# CIF file generated by openbabel 2.4.90, see http://openbabel.sf.net
data_I
_chemical_name_common ''
_cell_length_a 5.615
_cell_length_b 18.961
_cell_length_c 23.888
_cell_angle_alpha 89.932
_cell_angle_beta 89.873
_cell_angle_gamma 89.57
_space_group_name_H-M_alt 'P 1'
_space_group_name_Hall 'P 1'
loop_
    _symmetry_equiv_pos_as_xyz
    x,y,z
loop_
    _atom_site_label
    _atom_site_type_symbol
    _atom_site_fract_x
    _atom_site_fract_y
    _atom_site_fract_z
    _atom_site_occupancy
    H0      H    0.98985   0.54901   0.48349   1.000
    H1      H    0.04966   0.39164   0.35451   1.000
    H2      H    0.93418   0.60889   0.30912   1.000
    H3      H    0.00000   0.38983   0.19389   1.000
    H4      H    0.00000   0.44825   0.01926   1.000
    H5      H    0.05408   0.60601   0.14755   1.000
    H6      H    0.48855   0.44772   0.51902   1.000
    H7      H    0.54754   0.60493   0.64785   1.000
    H8      H    0.43004   0.38830   0.69345   1.000
    H9      H    0.43438   0.60790   0.80881   1.000
    H10     H    0.49365   0.54888   0.98331   1.000
    H11     H    0.54513   0.39065   0.85482   1.000
    H12     H    0.98944   0.94839   0.98329   1.000
    H13     H    0.05320   0.10615   0.85460   1.000
    H14     H    0.93113   0.88996   0.80886   1.000
    H15     H    0.00000   0.10880   0.69310   1.000
    H16     H    0.00000   0.04880   0.51884   1.000
    H17     H    0.04807   0.89137   0.64812   1.000
    H18     H    0.49195   0.04877   0.01911   1.000
    H19     H    0.54144   0.89042   0.14782   1.000
    H20     H    0.43618   0.10788   0.19362   1.000
    H21     H    0.43015   0.88827   0.30936   1.000
    H22     H    0.48906   0.94769   0.48361   1.000
    H23     H    0.55327   0.10467   0.35437   1.000
    C24     C    0.96497   0.58707   0.39789   1.000
    C25     C    0.99784   0.53531   0.43927   1.000
    C26     C    0.02153   0.46461   0.42359   1.000
    C27     C    0.03108   0.44670   0.36685   1.000
    C28     C    0.00974   0.49890   0.32556   1.000
    C29     C    0.96738   0.56924   0.34123   1.000
    C30     C    0.01085   0.49920   0.17697   1.000
    C31     C    0.00000   0.42905   0.16160   1.000
    C32     C    0.00000   0.41083   0.10502   1.000
    C33     C    0.99874   0.46213   0.06342   1.000
    C34     C    0.02424   0.53276   0.07881   1.000
    C35     C    0.03403   0.55099   0.13547   1.000
    C36     C    0.46218   0.40986   0.60465   1.000
    C37     C    0.49584   0.46144   0.56322   1.000
    C38     C    0.51961   0.53203   0.57883   1.000
    C39     C    0.52853   0.54995   0.63556   1.000
    C40     C    0.50607   0.49793   0.67690   1.000
    C41     C    0.46368   0.42777   0.66130   1.000
    C42     C    0.50706   0.49783   0.82553   1.000
    C43     C    0.46729   0.56836   0.84102   1.000
    C44     C    0.46717   0.58656   0.89761   1.000
    C45     C    0.49968   0.53493   0.93913   1.000
    C46     C    0.52098   0.46409   0.92366   1.000
    C47     C    0.52828   0.44582   0.86697   1.000
    C48     C    0.96361   0.91097   0.89762   1.000
    C49     C    0.99788   0.00000   0.93909   1.000
    C50     C    0.02351   0.03290   0.92352   1.000
    C51     C    0.03304   0.05113   0.86680   1.000
    C52     C    0.00956   0.00000   0.82544   1.000
    C53     C    0.96574   0.92918   0.84102   1.000
    C54     C    0.00934   0.99869   0.67686   1.000
    C55     C    0.00000   0.06909   0.66106   1.000
    C56     C    0.00000   0.08691   0.60437   1.000
    C57     C    0.99924   0.03510   0.56308   1.000
    C58     C    0.02164   0.96435   0.57889   1.000
    C59     C    0.03033   0.94644   0.63567   1.000
    C60     C    0.40286   0.15959   0.08779   1.000
    C61     C    0.46696   0.08648   0.10479   1.000
    C62     C    0.49810   0.03479   0.06331   1.000
    C63     C    0.51802   0.96391   0.07888   1.000
    C64     C    0.52567   0.94562   0.13559   1.000
    C65     C    0.50656   0.99768   0.17697   1.000
    C66     C    0.46777   0.06829   0.16141   1.000
    C67     C    0.50855   0.00000   0.32560   1.000
    C68     C    0.46454   0.92769   0.34139   1.000
    C69     C    0.46254   0.90980   0.39808   1.000
    C70     C    0.49704   0.96134   0.43937   1.000
    C71     C    0.52292   0.03189   0.42358   1.000
    C72     C    0.53257   0.04976   0.36680   1.000
    N73     N    0.01643   0.47464   0.26958   1.000
    N74     N    0.01719   0.52363   0.23293   1.000
    N75     N    0.51298   0.52225   0.73287   1.000
    N76     N    0.51197   0.47332   0.76957   1.000
    N77     N    0.01619   0.02364   0.76940   1.000
    N78     N    0.01531   0.97453   0.73292   1.000
    N79     N    0.51187   0.97316   0.23296   1.000
    N80     N    0.51546   0.02210   0.26956   1.000
    O81     O    0.23274   0.19131   0.11193   1.000
loop_
    _geom_bond_atom_site_label_1
    _geom_bond_atom_site_label_2
    _geom_bond_distance
    _geom_bond_site_symmetry_2
    _ccdc_geom_bond_type
    H18    C62       1.08893      .   S
    H4     C33       1.08753  1_455   S
    C62    C63       1.39784  1_545   S
    C62    C61       1.40413      .   S
    C33    C34       1.39752  1_655   S
    C33    C32       1.38982  1_655   S
    C34    C35       1.39864      .   S
    C63    C64       1.39858      .   S
    C60    C61       1.48599      .   S
    C60    O81       1.26350      .   S
    C61    C66       1.39556      .   S
    C32    C31       1.39529      .   S
    C35    H5        1.08935      .   S
    C35    C30       1.40112      .   S
    C64    H19       1.08935      .   S
    C64    C65       1.40111      .   S
    C66    C65       1.40459  1_545   S
    C66    H20       1.08886      .   S
    C31    C30       1.38225      .   S
    C31    H3        1.07086      .   S
    C65    N79       1.41565      .   S
    C30    N74       1.41567      .   S
    N74    N73       1.27576      .   S
    N79    N80       1.27608  1_565   S
    N80    C67       1.40261      .   S
    N73    C28       1.41518      .   S
    H2     C29       1.08888      .   S
    H21    C68       1.08888      .   S
    C28    C29       1.40399  1_455   S
    C28    C27       1.40120      .   S
    C67    C68       1.44454  1_545   S
    C67    C72       1.37188      .   S
    C29    C24       1.39550      .   S
    C68    C69       1.39569      .   S
    H23    C72       1.08937      .   S
    H1     C27       1.08932      .   S
    C72    C71       1.39866      .   S
    C27    C26       1.39847      .   S
    C24    C25       1.40368      .   S
    C69    C70       1.40395      .   S
    C71    C70       1.39781  1_545   S
    C26    C25       1.39756  1_455   S
    C25    H0        1.08880      .   S
    C70    H22       1.08880      .   S
    H16    C57       1.08803  1_455   S
    H6     C37       1.08882      .   S
    C57    C58       1.39803  1_645   S
    C57    C56       1.39293  1_655   S
    C37    C38       1.39734      .   S
    C37    C36       1.40395      .   S
    C38    C39       1.39859      .   S
    C58    C59       1.39869      .   S
    C56    C55       1.39524      .   S
    C36    C41       1.39564      .   S
    C39    H7        1.08935      .   S
    C39    C40       1.40115      .   S
    C59    H17       1.08935      .   S
    C59    C54       1.40132      .   S
    C55    C54       1.38736  1_545   S
    C55    H15       1.07438      .   S
    C41    C40       1.40416      .   S
    C41    H8        1.08888      .   S
    C54    N78       1.41518      .   S
    C40    N75       1.41553      .   S
    N75    N76       1.27574      .   S
    N78    N77       1.27622  1_565   S
    N77    C52       1.41157      .   S
    N76    C42       1.41573      .   S
    H9     C43       1.08889      .   S
    H14    C53       1.08877      .   S
    C52    C53       1.41612  1_445   S
    C52    C51       1.39239      .   S
    C42    C43       1.40407      .   S
    C42    C47       1.40114      .   S
    C53    C48       1.39519      .   S
    C43    C44       1.39559      .   S
    H13    C51       1.08937      .   S
    H11    C47       1.08935      .   S
    C51    C50       1.39879      .   S
    C47    C46       1.39860      .   S
    C44    C45       1.40381      .   S
    C48    C49       1.96908  1_565   S
    C50    C49       0.74081  1_455   S
    C46    C45       1.39780      .   S
    C49    H12       1.43964  1_545   S
    C45    H10       1.08883      .   S
