# CIF file generated by openbabel 2.4.90, see http://openbabel.sf.net
data_I
_chemical_name_common ''
_cell_length_a 5.615
_cell_length_b 18.961
_cell_length_c 23.888
_cell_angle_alpha 89.932
_cell_angle_beta 89.873
_cell_angle_gamma 89.57
_space_group_name_H-M_alt 'P 1'
_space_group_name_Hall 'P 1'
loop_
    _symmetry_equiv_pos_as_xyz
    x,y,z
loop_
    _atom_site_label
    _atom_site_type_symbol
    _atom_site_fract_x
    _atom_site_fract_y
    _atom_site_fract_z
    _atom_site_occupancy
    Cd0     Cd   0.91848   0.80863   0.46113   1.000
    Cd1     Cd   0.00000   0.30871   0.54175   1.000
    Cd2     Cd   0.42467   0.18843   0.54130   1.000
    Cd3     Cd   0.41874   0.80873   0.96018   1.000
    Cd4     Cd   0.92494   0.68844   0.96030   1.000
    Cd5     Cd   0.00000   0.18857   0.04196   1.000
    Cd6     Cd   0.42051   0.30886   0.00000   1.000
    C7      C    0.89782   0.65982   0.41511   1.000
    Cd8     Cd   0.41980   0.68843   0.46082   1.000
    C9      C    0.01107   0.40810   0.46704   1.000
    C10     C    0.00000   0.33832   0.08822   1.000
    C11     C    0.01550   0.58900   0.03512   1.000
    C12     C    0.39684   0.33727   0.58745   1.000
    C13     C    0.51043   0.58856   0.53535   1.000
    C14     C    0.40262   0.65961   0.91460   1.000
    C15     C    0.51074   0.40782   0.96734   1.000
    C16     C    0.89571   0.83842   0.91450   1.000
    C17     C    0.01538   0.08913   0.96713   1.000
    C18     C    0.00000   0.15978   0.58713   1.000
    C19     C    0.01093   0.90792   0.53549   1.000
    C20     C    0.50633   0.90771   0.03530   1.000
    C21     C    0.39660   0.83726   0.41546   1.000
    C22     C    0.51511   0.08844   0.46697   1.000
    O23     O    0.01268   0.68850   0.45702   1.000
    O24     O    0.72847   0.69145   0.39081   1.000
    O25     O    0.00000   0.42588   0.51864   1.000
    O26     O    0.01041   0.34357   0.45170   1.000
    O27     O    0.00000   0.30803   0.11280   1.000
    O28     O    0.01231   0.30865   0.04645   1.000
    O29     O    0.02041   0.65365   0.05009   1.000
    O30     O    0.99021   0.57101   0.98371   1.000
    O31     O    0.51301   0.30852   0.54539   1.000
    O32     O    0.22840   0.30584   0.61180   1.000
    O33     O    0.48973   0.57094   0.48375   1.000
    O34     O    0.51022   0.65309   0.55071   1.000
    O35     O    0.23273   0.69135   0.89050   1.000
    O36     O    0.51953   0.68856   0.95604   1.000
    O37     O    0.50985   0.34319   0.95226   1.000
    O38     O    0.49011   0.42593   0.00000   1.000
    O39     O    0.01114   0.80861   0.95616   1.000
    O40     O    0.72582   0.80813   0.89007   1.000
    O41     O    0.00000   0.07111   0.01862   1.000
    O42     O    0.02058   0.15378   0.95205   1.000
    O43     O    0.00000   0.19144   0.61125   1.000
    O44     O    0.01844   0.18860   0.54546   1.000
    O45     O    0.01009   0.84335   0.55086   1.000
    O46     O    0.98972   0.92581   0.48389   1.000
    O47     O    0.52035   0.18862   0.00000   1.000
    O48     O    0.49010   0.92584   0.98367   1.000
    O49     O    0.50058   0.84312   0.05057   1.000
    O50     O    0.22887   0.80573   0.39112   1.000
    O51     O    0.51157   0.80851   0.45763   1.000
    O52     O    0.52012   0.15297   0.45158   1.000
    O53     O    0.49012   0.07086   0.51854   1.000
    Ts54    Ts   0.07758   0.18948   0.06529   1.000
    Og55    Og   0.92021   0.63557   0.40937   1.000
    Og56    Og   0.01455   0.42694   0.45256   1.000
    Og57    Og   0.00000   0.36249   0.09382   1.000
    Og58    Og   0.01841   0.57025   0.04969   1.000
    Og59    Og   0.41862   0.36147   0.59318   1.000
    Og60    Og   0.51349   0.56972   0.54985   1.000
    Og61    Og   0.42414   0.63526   0.90894   1.000
    Og62    Og   0.51416   0.42658   0.95278   1.000
    Og63    Og   0.91834   0.86260   0.90887   1.000
    Og64    Og   0.01809   0.07039   0.95259   1.000
    Og65    Og   0.00000   0.13549   0.59288   1.000
    Og66    Og   0.01450   0.92673   0.54995   1.000
    Og67    Og   0.51022   0.92644   0.04983   1.000
    Og68    Og   0.41858   0.86144   0.40967   1.000
    Og69    Og   0.51771   0.06959   0.45251   1.000
loop_
    _geom_bond_atom_site_label_1
    _geom_bond_atom_site_label_2
    _geom_bond_distance
    _geom_bond_site_symmetry_2
    _ccdc_geom_bond_type
    O38    C15       0.86008  1_554   S
    Cd6    O37       1.40602  1_554   S
    O41    Cd5       2.29661      .   S
    O41    C17       1.27910  1_554   S
    C11    O29       1.27782      .   S
    C11    O30       1.28350  1_454   S
    C20    O49       1.27806      .   S
    C20    O48       1.28314  1_554   S
    Cd5    O28       2.28100      .   S
    Cd5    O42       2.24992  1_554   S
    O28    C10       1.14796      .   S
    O29    Cd4       2.30640  1_454   S
    O49    Cd3       2.30444  1_554   S
    C10    O27       0.82081      .   S
    O24    C7        1.26254      .   S
    O24    Cd8       2.40687      .   S
    O50    C21       1.26261      .   S
    O50    Cd0       2.41318  1_455   S
    C7     O23       1.31279  1_655   S
    C21    O51       1.31330      .   S
    O52    C22       1.27756      .   S
    O52    Cd2       2.30775      .   S
    O26    C9        1.27773      .   S
    O26    Cd1       2.25046      .   S
    O23    Cd8       2.28801      .   S
    O51    Cd0       2.28655      .   S
    Cd8    O33       2.32428      .   S
    Cd8    O34       2.30524      .   S
    Cd0    O46       2.32577      .   S
    Cd0    O45       2.30349  1_655   S
    C22    O53       1.28347      .   S
    C9     O25       1.27961      .   S
    O33    C13       1.28333      .   S
    O46    C19       1.28350  1_655   S
    O53    Cd2       2.32155      .   S
    O25    Cd1       2.28864      .   S
    C13    O34       1.27766      .   S
    C19    O45       1.27783      .   S
    Cd2    O31       2.33626      .   S
    Cd1    O44       2.28051      .   S
    Cd1    O32       2.11091      .   S
    O31    C12       1.31336      .   S
    O44    C18       1.13995      .   S
    C18    O43       0.83240      .   S
    C12    O32       1.26222      .   S
    O40    C16       1.26171      .   S
    O40    Cd3       2.40117      .   S
    O35    C14       1.26356      .   S
    O35    Cd4       2.39976  1_455   S
    C16    O39       1.31371  1_655   S
    C14    O36       1.31219      .   S
    O42    C17       1.27777      .   S
    O37    C15       1.27771      .   S
    O36    Cd4       2.27884      .   S
    O39    Cd3       2.29092      .   S
    Cd3    O48       2.32879      .   S
    Cd4    O30       2.32160      .   S
    O23    Cd0       2.33666  1_455   S
    O28    Cd6       2.54426      .   S
    O28    O27       1.58645      .   S
    O36    Cd3       2.34582      .   S
    O38    Cd6       2.25679      .   S
    O39    Cd4       2.33495  1_455   S
    O44    Cd2       2.28289      .   S
    O44    O43       1.57570      .   S
    O47    Cd6       2.34367      .   S
    O51    Cd8       2.33928      .   S
    Cd5    Ts54      0.70831      .   S
    C7     Og55      0.49516      .   S
    C9     Og56      0.49741      .   S
    C10    Og57      0.47756      .   S
    C11    Og58      0.49731      .   S
    C12    Og59      0.49527      .   S
    C13    Og60      0.49747      .   S
    C14    Og61      0.49530      .   S
    C15    Og62      0.49756      .   S
    C16    Og63      0.49515      .   S
    C17    Og64      0.49733      .   S
    C18    Og65      0.48047      .   S
    C19    Og66      0.49745      .   S
    C20    Og67      0.49752      .   S
    C21    Og68      0.49522      .   S
    C22    Og69      0.49750      .   S
