# CIF file generated by openbabel 2.4.90, see http://openbabel.sf.net
data_I
_chemical_name_common ''
_cell_length_a 5.615
_cell_length_b 18.961
_cell_length_c 23.888
_cell_angle_alpha 89.932
_cell_angle_beta 89.873
_cell_angle_gamma 89.57
_space_group_name_H-M_alt 'P 1'
_space_group_name_Hall 'P 1'
loop_
    _symmetry_equiv_pos_as_xyz
    x,y,z
loop_
    _atom_site_label
    _atom_site_type_symbol
    _atom_site_fract_x
    _atom_site_fract_y
    _atom_site_fract_z
    _atom_site_occupancy
    C0      C    0.89782   0.65982   0.41511   1.000
    C1      C    0.01550   0.58900   0.03512   1.000
    C2      C    0.51043   0.58856   0.53535   1.000
    C3      C    0.40262   0.65961   0.91460   1.000
    C4      C    0.89571   0.83842   0.91450   1.000
    C5      C    0.01093   0.90792   0.53549   1.000
    C6      C    0.50633   0.90771   0.03530   1.000
    C7      C    0.39660   0.83726   0.41546   1.000
    O8      O    0.01268   0.68850   0.45702   1.000
    O9      O    0.72847   0.69145   0.39081   1.000
    O10     O    0.02041   0.65365   0.05009   1.000
    O11     O    0.99021   0.57101   0.98371   1.000
    O12     O    0.48973   0.57094   0.48375   1.000
    O13     O    0.51022   0.65309   0.55071   1.000
    O14     O    0.23273   0.69135   0.89050   1.000
    O15     O    0.51953   0.68856   0.95604   1.000
    O16     O    0.01114   0.80861   0.95616   1.000
    O17     O    0.72582   0.80813   0.89007   1.000
    O18     O    0.01009   0.84335   0.55086   1.000
    O19     O    0.98972   0.92581   0.48389   1.000
    O20     O    0.49010   0.92584   0.98367   1.000
    O21     O    0.50058   0.84312   0.05057   1.000
    O22     O    0.22887   0.80573   0.39112   1.000
    O23     O    0.51157   0.80851   0.45763   1.000
loop_
    _geom_bond_atom_site_label_1
    _geom_bond_atom_site_label_2
    _geom_bond_distance
    _geom_bond_site_symmetry_2
    _ccdc_geom_bond_type
    C1     O10       1.27782      .   S
    C1     O11       1.28350  1_454   S
    C6     O21       1.27806      .   S
    C6     O20       1.28314  1_554   S
    O9     C0        1.26254      .   S
    O22    C7        1.26261      .   S
    C0     O8        1.31279  1_655   S
    C7     O23       1.31330      .   S
    O12    C2        1.28333      .   S
    O19    C5        1.28350  1_655   S
    C2     O13       1.27766      .   S
    C5     O18       1.27783      .   S
    O17    C4        1.26171      .   S
    O14    C3        1.26356      .   S
    C4     O16       1.31371  1_655   S
    C3     O15       1.31219      .   S
