# CIF file generated by openbabel 2.4.90, see http://openbabel.sf.net
data_I
_chemical_name_common ''
_cell_length_a 5.615
_cell_length_b 18.961
_cell_length_c 23.888
_cell_angle_alpha 89.932
_cell_angle_beta 89.873
_cell_angle_gamma 89.57
_space_group_name_H-M_alt 'P 1'
_space_group_name_Hall 'P 1'
loop_
    _symmetry_equiv_pos_as_xyz
    x,y,z
loop_
    _atom_site_label
    _atom_site_type_symbol
    _atom_site_fract_x
    _atom_site_fract_y
    _atom_site_fract_z
    _atom_site_occupancy
    Cd0     Cd   0.91848   0.80863   0.46113   1.000
    Cd1     Cd   0.00000   0.30871   0.54175   1.000
    Cd2     Cd   0.42467   0.18843   0.54130   1.000
    Cd3     Cd   0.41874   0.80873   0.96018   1.000
    Cd4     Cd   0.92494   0.68844   0.96030   1.000
    Cd5     Cd   0.00000   0.18857   0.04196   1.000
    Cd6     Cd   0.42051   0.30886   0.00000   1.000
    Cd7     Cd   0.41980   0.68843   0.46082   1.000
    C8      C    0.01107   0.40810   0.46704   1.000
    C9      C    0.00000   0.33832   0.08822   1.000
    C10     C    0.39684   0.33727   0.58745   1.000
    C11     C    0.51074   0.40782   0.96734   1.000
    C12     C    0.01538   0.08913   0.96713   1.000
    C13     C    0.00000   0.15978   0.58713   1.000
    C14     C    0.51511   0.08844   0.46697   1.000
    O15     O    0.00000   0.42588   0.51864   1.000
    O16     O    0.01041   0.34357   0.45170   1.000
    O17     O    0.00000   0.30803   0.11280   1.000
    O18     O    0.01231   0.30865   0.04645   1.000
    O19     O    0.51301   0.30852   0.54539   1.000
    O20     O    0.22840   0.30584   0.61180   1.000
    O21     O    0.50985   0.34319   0.95226   1.000
    O22     O    0.49011   0.42593   0.00000   1.000
    O23     O    0.00000   0.07111   0.01862   1.000
    O24     O    0.02058   0.15378   0.95205   1.000
    O25     O    0.00000   0.19144   0.61125   1.000
    O26     O    0.01844   0.18860   0.54546   1.000
    O27     O    0.52035   0.18862   0.00000   1.000
    O28     O    0.52012   0.15297   0.45158   1.000
    O29     O    0.49012   0.07086   0.51854   1.000
loop_
    _geom_bond_atom_site_label_1
    _geom_bond_atom_site_label_2
    _geom_bond_distance
    _geom_bond_site_symmetry_2
    _ccdc_geom_bond_type
    O22    C11       0.86008  1_554   S
    Cd6    O21       1.40602  1_554   S
    O23    Cd5       2.29661      .   S
    O23    C12       1.27910  1_554   S
    Cd5    O18       2.28100      .   S
    Cd5    O24       2.24992  1_554   S
    O18    C9        1.14796      .   S
    C9     O17       0.82081      .   S
    O28    C14       1.27756      .   S
    O28    Cd2       2.30775      .   S
    O16    C8        1.27773      .   S
    O16    Cd1       2.25046      .   S
    C14    O29       1.28347      .   S
    C8     O15       1.27961      .   S
    O29    Cd2       2.32155      .   S
    O15    Cd1       2.28864      .   S
    Cd2    O19       2.33626      .   S
    Cd1    O26       2.28051      .   S
    Cd1    O20       2.11091      .   S
    O19    C10       1.31336      .   S
    O26    C13       1.13995      .   S
    C13    O25       0.83240      .   S
    C10    O20       1.26222      .   S
    O24    C12       1.27777      .   S
    O21    C11       1.27771      .   S
    O18    Cd6       2.54426      .   S
    O18    O17       1.58645      .   S
    O22    Cd6       2.25679      .   S
    O26    Cd2       2.28289      .   S
    O26    O25       1.57570      .   S
    O27    Cd6       2.34367      .   S
