# CIF file generated by openbabel 2.4.90, see http://openbabel.sf.net
data_I
_chemical_name_common ''
_cell_length_a 5.615
_cell_length_b 18.961
_cell_length_c 23.888
_cell_angle_alpha 89.932
_cell_angle_beta 89.873
_cell_angle_gamma 89.57
_space_group_name_H-M_alt 'P 1'
_space_group_name_Hall 'P 1'
loop_
    _symmetry_equiv_pos_as_xyz
    x,y,z
loop_
    _atom_site_label
    _atom_site_type_symbol
    _atom_site_fract_x
    _atom_site_fract_y
    _atom_site_fract_z
    _atom_site_occupancy
    C0      C    0.89782   0.65982   0.41511   1.000
    C1      C    0.01107   0.40810   0.46704   1.000
    C2      C    0.00000   0.33832   0.08822   1.000
    C3      C    0.01550   0.58900   0.03512   1.000
    C4      C    0.39684   0.33727   0.58745   1.000
    C5      C    0.51043   0.58856   0.53535   1.000
    C6      C    0.40262   0.65961   0.91460   1.000
    C7      C    0.51074   0.40782   0.96734   1.000
    C8      C    0.89571   0.83842   0.91450   1.000
    C9      C    0.01538   0.08913   0.96713   1.000
    C10     C    0.00000   0.15978   0.58713   1.000
    C11     C    0.01093   0.90792   0.53549   1.000
    C12     C    0.50633   0.90771   0.03530   1.000
    C13     C    0.39660   0.83726   0.41546   1.000
    C14     C    0.51511   0.08844   0.46697   1.000
