# CIF file generated by openbabel 2.4.90, see http://openbabel.sf.net
data_I
_chemical_name_common ''
_cell_length_a 5.615
_cell_length_b 18.961
_cell_length_c 23.888
_cell_angle_alpha 89.932
_cell_angle_beta 89.873
_cell_angle_gamma 89.57
_space_group_name_H-M_alt 'P 1'
_space_group_name_Hall 'P 1'
loop_
    _symmetry_equiv_pos_as_xyz
    x,y,z
loop_
    _atom_site_label
    _atom_site_type_symbol
    _atom_site_fract_x
    _atom_site_fract_y
    _atom_site_fract_z
    _atom_site_occupancy
    Zr0     Zr   0.41980   0.68843   0.46082   1.000
    Zr1     Zr   0.91848   0.80863   0.46113   1.000
    Zr2     Zr   0.41874   0.80873   0.96018   1.000
    Zr3     Zr   0.92494   0.68844   0.96030   1.000
    N4      N    0.00536   0.00082   0.75113   1.000
    N5      N    0.00609   0.49894   0.25130   1.000
    N6      N    0.49653   0.49803   0.75121   1.000
    N7      N    0.48074   0.01414   0.23754   1.000
    C8      C    0.00358   0.89236   0.52341   1.000
    O9      O    0.00720   0.93042   0.58879   1.000
    C10     C    0.50346   0.60420   0.52327   1.000
    O11     O    0.50462   0.56668   0.58871   1.000
    C12     C    0.37902   0.81717   0.42140   1.000
    O13     O    0.22635   0.81217   0.42377   1.000
    O14     O    0.42235   0.78282   0.44032   1.000
    O15     O    0.54702   0.81287   0.44039   1.000
    O16     O    0.41708   0.88050   0.37178   1.000
    C17     C    0.87966   0.67992   0.42098   1.000
    O18     O    0.04795   0.68420   0.43995   1.000
    O19     O    0.92262   0.71425   0.44003   1.000
    O20     O    0.72690   0.68493   0.42340   1.000
    O21     O    0.92420   0.62056   0.37494   1.000
    Zr22    Zr   0.22344   0.24846   0.53186   1.000
    O23     O    0.11306   0.15527   0.60265   1.000
    O24     O    0.36166   0.14281   0.43663   1.000
    O25     O    0.34323   0.34213   0.60274   1.000
    O26     O    0.11732   0.35805   0.44008   1.000
    C27     C    0.38496   0.67984   0.92038   1.000
    O28     O    0.42534   0.62020   0.87452   1.000
    O29     O    0.23190   0.68487   0.92289   1.000
    O30     O    0.55360   0.68417   0.93928   1.000
    O31     O    0.42705   0.71424   0.93925   1.000
    C32     C    0.87755   0.81839   0.92024   1.000
    O33     O    0.72492   0.81341   0.92268   1.000
    O34     O    0.92253   0.87807   0.87442   1.000
    O35     O    0.04625   0.81353   0.93921   1.000
    O36     O    0.92280   0.78346   0.93924   1.000
    C37     C    0.00871   0.60455   0.02298   1.000
    O38     O    0.01084   0.56723   0.08856   1.000
    C39     C    0.49900   0.89222   0.02318   1.000
    O40     O    0.49773   0.93360   0.08525   1.000
    Zr41    Zr   0.20832   0.26100   0.01224   1.000
    O42     O    0.25344   0.18152   0.08474   1.000
    O43     O    0.11036   0.14596   0.93023   1.000
    O44     O    0.10568   0.34888   0.09310   1.000
    O45     O    0.35726   0.36400   0.93029   1.000
    O46     O    0.98139   0.86949   0.50633   1.000
    O47     O    0.47802   0.86941   0.00592   1.000
    O48     O    0.48167   0.62721   0.50615   1.000
    O49     O    0.98692   0.62747   0.00579   1.000
loop_
    _geom_bond_atom_site_label_1
    _geom_bond_atom_site_label_2
    _geom_bond_distance
    _geom_bond_site_symmetry_2
    _ccdc_geom_bond_type
    C8     O9        1.72127      .   S
    N4     O9        4.10276  1_545   S
    C10    O11       1.71667      .   S
    N6     O11       4.09290      .   S
    C12    O13       0.86486      .   S
    Zr1    O13       1.94532  1_655   S
    C12    O14       0.82754      .   S
    Zr0    O14       1.85508      .   S
    C12    O15       1.05021      .   S
    Zr1    O15       2.14574      .   S
    C12    O16       1.70070      .   S
    N7     O16       4.10133  1_545   S
    C17    O18       1.05262  1_655   S
    Zr0    O18       2.14986      .   S
    C17    O19       0.83204      .   S
    Zr1    O19       1.85987      .   S
    C17    O20       0.86410      .   S
    Zr0    O20       1.94131      .   S
    C17    O21       1.59269      .   S
    N5     O21       3.77448  1_455   S
    Zr22   O23       2.52399      .   S
    N4     O23       4.63838      .   S
    Zr22   O24       3.12560      .   S
    N7     O24       5.38574      .   S
    Zr22   O25       2.55033      .   S
    N6     O25       4.70458      .   S
    Zr22   O26       3.07503      .   S
    N5     O26       5.27458      .   S
    C27    O28       1.59013      .   S
    N6     O28       3.76831      .   S
    C27    O29       0.86596      .   S
    Zr3    O29       1.94051  1_655   S
    C27    O30       1.05369      .   S
    Zr3    O30       2.14795      .   S
    C27    O31       0.82941      .   S
    Zr2    O31       1.86086      .   S
    C32    O33       0.86478      .   S
    Zr2    O33       1.93939      .   S
    C32    O34       1.59464      .   S
    N4     O34       3.78169  1_445   S
    C32    O35       1.05424  1_655   S
    Zr2    O35       2.15305      .   S
    C32    O36       0.84048      .   S
    Zr3    O36       1.87001      .   S
    C37    O38       1.71826      .   S
    N5     O38       4.09631      .   S
    C39    O40       1.67825      .   S
    N7     O40       3.94789  1_545   S
    Zr41   O42       2.30763      .   S
    N7     O42       4.99570      .   S
    Zr41   O43       2.98848  1_554   S
    N4     O43       5.12733      .   S
    Zr41   O44       2.61307      .   S
    N5     O44       4.76257      .   S
    Zr41   O45       2.89013  1_554   S
    N6     O45       5.03597      .   S
    Zr1    O46       1.62260      .   S
    C8     O46       0.60961  1_455   S
    C39    O47       0.61024      .   S
    Zr2    O47       1.62435  1_556   S
    C10    O48       0.60964      .   S
    Zr0    O48       1.62275      .   S
    Zr3    O49       1.62194  1_556   S
    C37    O49       0.60934  1_455   S
