# CIF file generated by openbabel 2.4.90, see http://openbabel.sf.net
data_I
_chemical_name_common ''
_cell_length_a 5.615
_cell_length_b 18.961
_cell_length_c 23.888
_cell_angle_alpha 89.932
_cell_angle_beta 89.873
_cell_angle_gamma 89.57
_space_group_name_H-M_alt 'P 1'
_space_group_name_Hall 'P 1'
loop_
    _symmetry_equiv_pos_as_xyz
    x,y,z
loop_
    _atom_site_label
    _atom_site_type_symbol
    _atom_site_fract_x
    _atom_site_fract_y
    _atom_site_fract_z
    _atom_site_occupancy
    Zr0     Zr   0.41980   0.68843   0.46082   1.000
    Zr1     Zr   0.91848   0.80863   0.46113   1.000
    Zr2     Zr   0.00000   0.30871   0.54175   1.000
    Zr3     Zr   0.42467   0.18843   0.54130   1.000
    Zr4     Zr   0.41874   0.80873   0.96018   1.000
    Zr5     Zr   0.92494   0.68844   0.96030   1.000
    Zr6     Zr   0.00000   0.18857   0.04196   1.000
    Zr7     Zr   0.42051   0.30886   0.00000   1.000
    Zr8     Zr   0.89782   0.65982   0.41511   1.000
    Zr9     Zr   0.01107   0.40810   0.46704   1.000
    Zr10    Zr   0.00000   0.33832   0.08822   1.000
    Zr11    Zr   0.01550   0.58900   0.03512   1.000
    Zr12    Zr   0.39684   0.33727   0.58745   1.000
    Zr13    Zr   0.51043   0.58856   0.53535   1.000
    Zr14    Zr   0.40262   0.65961   0.91460   1.000
    Zr15    Zr   0.51074   0.40782   0.96734   1.000
    Zr16    Zr   0.89571   0.83842   0.91450   1.000
    Zr17    Zr   0.01538   0.08913   0.96713   1.000
    Zr18    Zr   0.00000   0.15978   0.58713   1.000
    Zr19    Zr   0.01093   0.90792   0.53549   1.000
    Zr20    Zr   0.50633   0.90771   0.03530   1.000
    Zr21    Zr   0.39660   0.83726   0.41546   1.000
    Zr22    Zr   0.51511   0.08844   0.46697   1.000
    Zr23    Zr   0.01268   0.68850   0.45702   1.000
    Zr24    Zr   0.72847   0.69145   0.39081   1.000
    Zr25    Zr   0.00000   0.42588   0.51864   1.000
    Zr26    Zr   0.01041   0.34357   0.45170   1.000
    Zr27    Zr   0.00000   0.30803   0.11280   1.000
    Zr28    Zr   0.01231   0.30865   0.04645   1.000
    Zr29    Zr   0.02041   0.65365   0.05009   1.000
    Zr30    Zr   0.99021   0.57101   0.98371   1.000
    Zr31    Zr   0.51301   0.30852   0.54539   1.000
    Zr32    Zr   0.22840   0.30584   0.61180   1.000
    Zr33    Zr   0.48973   0.57094   0.48375   1.000
    Zr34    Zr   0.51022   0.65309   0.55071   1.000
    Zr35    Zr   0.23273   0.69135   0.89050   1.000
    Zr36    Zr   0.51953   0.68856   0.95604   1.000
    Zr37    Zr   0.50985   0.34319   0.95226   1.000
    Zr38    Zr   0.49011   0.42593   0.00000   1.000
    Zr39    Zr   0.01114   0.80861   0.95616   1.000
    Zr40    Zr   0.72582   0.80813   0.89007   1.000
    Zr41    Zr   0.00000   0.07111   0.01862   1.000
    Zr42    Zr   0.02058   0.15378   0.95205   1.000
    Zr43    Zr   0.00000   0.19144   0.61125   1.000
    Zr44    Zr   0.01844   0.18860   0.54546   1.000
    Zr45    Zr   0.01009   0.84335   0.55086   1.000
    Zr46    Zr   0.98972   0.92581   0.48389   1.000
    Zr47    Zr   0.52035   0.18862   0.00000   1.000
    Zr48    Zr   0.49010   0.92584   0.98367   1.000
    Zr49    Zr   0.50058   0.84312   0.05057   1.000
    Zr50    Zr   0.22887   0.80573   0.39112   1.000
    Zr51    Zr   0.51157   0.80851   0.45763   1.000
    Zr52    Zr   0.52012   0.15297   0.45158   1.000
    Zr53    Zr   0.49012   0.07086   0.51854   1.000
    O54     O    0.50043   0.41688   0.98367   1.000
    O55     O    0.46518   0.32603   0.97613   1.000
    O56     O    0.00000   0.12984   0.03029   1.000
    O57     O    0.00769   0.08012   0.99287   1.000
    O58     O    0.01796   0.62133   0.04261   1.000
    O59     O    0.00285   0.58001   0.00942   1.000
    O60     O    0.50345   0.87541   0.04293   1.000
    O61     O    0.49821   0.91677   0.00949   1.000
    O62     O    0.00616   0.24861   0.04420   1.000
    O63     O    0.01029   0.17118   0.99701   1.000
    O64     O    0.00616   0.32349   0.06734   1.000
    O65     O    0.97268   0.67104   0.00520   1.000
    O66     O    0.45966   0.82592   0.00538   1.000
    O67     O    0.00000   0.32318   0.10051   1.000
    O68     O    0.81315   0.67563   0.40296   1.000
    O69     O    0.57414   0.68994   0.42582   1.000
    O70     O    0.31274   0.82149   0.40329   1.000
    O71     O    0.07368   0.80718   0.42613   1.000
    O72     O    0.95525   0.67416   0.43606   1.000
    O73     O    0.45409   0.82288   0.43655   1.000
    O74     O    0.51761   0.12071   0.45927   1.000
    O75     O    0.47239   0.17070   0.49644   1.000
    O76     O    0.01074   0.37584   0.45937   1.000
    O77     O    0.00520   0.32614   0.49673   1.000
    O78     O    0.21624   0.68847   0.45892   1.000
    O79     O    0.71503   0.80857   0.45938   1.000
    O80     O    0.45477   0.62969   0.47229   1.000
    O81     O    0.46501   0.67076   0.50577   1.000
    O82     O    0.95410   0.86722   0.47251   1.000
    O83     O    0.96428   0.82599   0.50600   1.000
    O84     O    0.50261   0.07965   0.49275   1.000
    O85     O    0.00553   0.41699   0.49284   1.000
    O86     O    0.50008   0.57975   0.50955   1.000
    O87     O    0.00033   0.91687   0.50969   1.000
    O88     O    0.45739   0.12965   0.52992   1.000
    O89     O    0.00000   0.36730   0.53020   1.000
    O90     O    0.51033   0.62082   0.54303   1.000
    O91     O    0.01051   0.87564   0.54318   1.000
    O92     O    0.46884   0.24847   0.54335   1.000
    O93     O    0.00922   0.24866   0.54360   1.000
    O94     O    0.11420   0.30727   0.57678   1.000
    O95     O    0.45493   0.32289   0.56642   1.000
    O96     O    0.00922   0.17419   0.56629   1.000
    O97     O    0.00000   0.17561   0.59919   1.000
    O98     O    0.31262   0.32155   0.59962   1.000
    O99     O    0.81076   0.82328   0.90228   1.000
    O100    O    0.57228   0.80843   0.92512   1.000
    O101    O    0.31767   0.67548   0.90255   1.000
    O102    O    0.07884   0.68989   0.92540   1.000
    O103    O    0.95342   0.82351   0.93533   1.000
    O104    O    0.46108   0.67408   0.93532   1.000
    O105    O    0.01798   0.12146   0.95959   1.000
    O106    O    0.51030   0.37551   0.95980   1.000
    O107    O    0.72224   0.68850   0.95817   1.000
    O108    O    0.21494   0.80867   0.95817   1.000
    O109    O    0.45442   0.86728   0.97193   1.000
    O110    O    0.95758   0.62972   0.97201   1.000
    O111    O    0.96558   0.74857   0.45907   1.000
    O112    O    0.21641   0.30875   0.02322   1.000
    O113    O    0.00616   0.30834   0.07962   1.000
    O114    O    0.46914   0.74864   0.95811   1.000
    O115    O    0.45531   0.36739   0.00000   1.000
    O116    O    0.96804   0.74852   0.95823   1.000
    O117    O    0.22155   0.18852   0.54338   1.000
    O118    O    0.00922   0.19002   0.57835   1.000
    O119    O    0.47043   0.24874   0.00000   1.000
    O120    O    0.46569   0.74847   0.45923   1.000
    N121    N    0.00536   0.00082   0.75113   1.000
    O122    O    0.96751   0.93776   0.82859   1.000
    O123    O    0.01082   0.96848   0.65416   1.000
    O124    O    0.01240   0.03092   0.84823   1.000
    O125    O    0.00268   0.06208   0.67344   1.000
    N126    N    0.00609   0.49894   0.25130   1.000
    O127    O    0.01298   0.52991   0.15413   1.000
    O128    O    0.00305   0.43676   0.17396   1.000
    O129    O    0.01119   0.46765   0.34831   1.000
    O130    O    0.96874   0.56119   0.32890   1.000
    N131    N    0.49653   0.49803   0.75121   1.000
    O132    O    0.50620   0.46699   0.84835   1.000
    O133    O    0.46302   0.43580   0.67363   1.000
    O134    O    0.46571   0.56056   0.82866   1.000
    O135    O    0.50578   0.52916   0.65415   1.000
    N136    N    0.48074   0.01414   0.23754   1.000
    O137    O    0.29855   0.10204   0.15724   1.000
    O138    O    0.49987   0.03715   0.34141   1.000
    O139    O    0.45515   0.94384   0.32216   1.000
    O140    O    0.49645   0.97497   0.14732   1.000
loop_
    _geom_bond_atom_site_label_1
    _geom_bond_atom_site_label_2
    _geom_bond_distance
    _geom_bond_site_symmetry_2
    _ccdc_geom_bond_type
    Zr38   O54       0.43004  1_554   S
    Zr15   O54       0.43004      .   S
    Zr7    O55       0.70301  1_554   S
    Zr37   O55       0.70301      .   S
    Zr41   O56       1.14831      .   S
    Zr6    O56       1.14831      .   S
    Zr41   O57       0.63955  1_554   S
    Zr17   O57       0.63955      .   S
    Zr11   O58       0.63891      .   S
    Zr29   O58       0.63891      .   S
    Zr11   O59       0.64175      .   S
    Zr30   O59       0.64175  1_656   S
    Zr20   O60       0.63903      .   S
    Zr49   O60       0.63903      .   S
    Zr20   O61       0.64157      .   S
    Zr48   O61       0.64157  1_556   S
    Zr6    O62       1.14050      .   S
    Zr28   O62       1.14050      .   S
    Zr6    O63       1.12496  1_554   S
    Zr42   O63       1.12496      .   S
    Zr28   O64       0.57398      .   S
    Zr10   O64       0.57398      .   S
    Zr29   O65       1.15320  1_455   S
    Zr5    O65       1.15320  1_556   S
    Zr49   O66       1.15222      .   S
    Zr4    O66       1.15222  1_556   S
    Zr10   O67       0.41041      .   S
    Zr27   O67       0.41041      .   S
    Zr24   O68       0.63127      .   S
    Zr8    O68       0.63127      .   S
    Zr24   O69       1.20343      .   S
    Zr0    O69       1.20343      .   S
    Zr50   O70       0.63130      .   S
    Zr21   O70       0.63130      .   S
    Zr50   O71       1.20659      .   S
    Zr1    O71       1.20659  1_655   S
    Zr8    O72       0.65640      .   S
    Zr23   O72       0.65640  1_455   S
    Zr21   O73       0.65665      .   S
    Zr51   O73       0.65665      .   S
    Zr52   O74       0.63878      .   S
    Zr22   O74       0.63878      .   S
    Zr52   O75       1.15387      .   S
    Zr3    O75       1.15387      .   S
    Zr26   O76       0.63886      .   S
    Zr9    O76       0.63886      .   S
    Zr26   O77       1.12523      .   S
    Zr2    O77       1.12523      .   S
    Zr23   O78       1.14400      .   S
    Zr0    O78       1.14400      .   S
    Zr51   O79       1.14327      .   S
    Zr1    O79       1.14327      .   S
    Zr0    O80       1.16214      .   S
    Zr33   O80       1.16214      .   S
    Zr0    O81       1.15262      .   S
    Zr34   O81       1.15262      .   S
    Zr1    O82       1.16288      .   S
    Zr46   O82       1.16288      .   S
    Zr1    O83       1.15175      .   S
    Zr45   O83       1.15175  1_455   S
    Zr22   O84       0.64173      .   S
    Zr53   O84       0.64173      .   S
    Zr9    O85       0.63980      .   S
    Zr25   O85       0.63980      .   S
    Zr33   O86       0.64166      .   S
    Zr13   O86       0.64166      .   S
    Zr46   O87       0.64175  1_655   S
    Zr19   O87       0.64175      .   S
    Zr53   O88       1.16077      .   S
    Zr3    O88       1.16077      .   S
    Zr25   O89       1.14432      .   S
    Zr2    O89       1.14432      .   S
    Zr13   O90       0.63883      .   S
    Zr34   O90       0.63883      .   S
    Zr19   O91       0.63891      .   S
    Zr45   O91       0.63891      .   S
    Zr3    O92       1.16813      .   S
    Zr31   O92       1.16813      .   S
    Zr2    O93       1.14025      .   S
    Zr44   O93       1.14025      .   S
    Zr2    O94       1.05545      .   S
    Zr32   O94       1.05545      .   S
    Zr31   O95       0.65668      .   S
    Zr12   O95       0.65668      .   S
    Zr44   O96       0.56998      .   S
    Zr18   O96       0.56998      .   S
    Zr18   O97       0.41620      .   S
    Zr43   O97       0.41620      .   S
    Zr12   O98       0.63111      .   S
    Zr32   O98       0.63111      .   S
    Zr40   O99       0.63085      .   S
    Zr16   O99       0.63085      .   S
    Zr40   O100      1.20059      .   S
    Zr4    O100      1.20059      .   S
    Zr35   O101      0.63178      .   S
    Zr14   O101      0.63178      .   S
    Zr35   O102      1.19988      .   S
    Zr5    O102      1.19988  1_655   S
    Zr16   O103      0.65686      .   S
    Zr39   O103      0.65686  1_455   S
    Zr14   O104      0.65609      .   S
    Zr36   O104      0.65609      .   S
    Zr42   O105      0.63888      .   S
    Zr17   O105      0.63888      .   S
    Zr37   O106      0.63886      .   S
    Zr15   O106      0.63886      .   S
    Zr36   O107      1.13942      .   S
    Zr5    O107      1.13942      .   S
    Zr39   O108      1.14546      .   S
    Zr4    O108      1.14546      .   S
    Zr4    O109      1.16439      .   S
    Zr48   O109      1.16439      .   S
    Zr5    O110      1.16080      .   S
    Zr30   O110      1.16080      .   S
    Zr23   O111      1.16833  1_455   S
    Zr1    O111      1.16833      .   S
    Zr28   O112      1.27213      .   S
    Zr7    O112      1.27213      .   S
    Zr28   O113      0.79323      .   S
    Zr27   O113      0.79323      .   S
    Zr36   O114      1.17291      .   S
    Zr4    O114      1.17291      .   S
    Zr38   O115      1.12840      .   S
    Zr7    O115      1.12840      .   S
    Zr39   O116      1.16747  1_455   S
    Zr5    O116      1.16747      .   S
    Zr44   O117      1.14144      .   S
    Zr3    O117      1.14144      .   S
    Zr44   O118      0.78785      .   S
    Zr43   O118      0.78785      .   S
    Zr47   O119      1.17183      .   S
    Zr7    O119      1.17183      .   S
    Zr51   O120      1.16964      .   S
    Zr0    O120      1.16964      .   S
    N121   O122      2.21275  1_445   S
    Zr16   O122      2.81431      .   S
    N121   O123      2.39697  1_545   S
    Zr19   O123      3.05974      .   S
    N121   O124      2.38980      .   S
    Zr17   O124      3.04868      .   S
    N121   O125      2.18821      .   S
    Zr18   O125      2.77009      .   S
    N126   O127      2.39388      .   S
    Zr11   O127      3.05460      .   S
    N126   O128      2.19295      .   S
    Zr10   O128      2.77276      .   S
    N126   O129      2.39153      .   S
    Zr9    O129      3.05146      .   S
    N126   O130      2.20756  1_455   S
    Zr8    O130      2.80908      .   S
    N131   O132      2.39403      .   S
    Zr15   O132      3.05456      .   S
    N131   O133      2.20727      .   S
    Zr12   O133      2.80875      .   S
    N131   O134      2.20440      .   S
    Zr14   O134      2.80427      .   S
    N131   O135      2.39231      .   S
    Zr13   O135      3.05203      .   S
    N136   O137      2.73477      .   S
    Zr6    O137      3.61311      .   S
    N136   O138      2.52242      .   S
    Zr22   O138      3.15571      .   S
    N136   O139      2.42457  1_545   S
    Zr21   O139      3.02586      .   S
    N136   O140      2.28181  1_545   S
    Zr20   O140      2.96588      .   S
