# CIF file generated by openbabel 2.4.90, see http://openbabel.sf.net
data_I
_chemical_name_common ''
_cell_length_a 7.6955
_cell_length_b 14.667
_cell_length_c 15.813
_cell_angle_alpha 90.02
_cell_angle_beta 90.05
_cell_angle_gamma 92.045
_space_group_name_H-M_alt 'P 1'
_space_group_name_Hall 'P 1'
loop_
    _symmetry_equiv_pos_as_xyz
    x,y,z
loop_
    _atom_site_label
    _atom_site_type_symbol
    _atom_site_fract_x
    _atom_site_fract_y
    _atom_site_fract_z
    _atom_site_occupancy
    C0      C    0.90686   0.43294   0.80661   1.000
    C1      C    0.82709   0.30787   0.93868   1.000
    C2      C    0.59239   0.06722   0.30635   1.000
    C3      C    0.67154   0.19225   0.43857   1.000
    C4      C    0.09315   0.56706   0.19337   1.000
    C5      C    0.17293   0.69214   0.06131   1.000
    C6      C    0.40760   0.93278   0.69363   1.000
    C7      C    0.32846   0.80776   0.56141   1.000
    N8      N    0.94670   0.43175   0.73482   1.000
    N9      N    0.81638   0.23061   0.95865   1.000
    N10     N    0.55271   0.06861   0.23451   1.000
    N11     N    0.68181   0.26950   0.45864   1.000
    N12     N    0.05329   0.56825   0.26516   1.000
    N13     N    0.18360   0.76939   0.04133   1.000
    N14     N    0.44727   0.93139   0.76548   1.000
    N15     N    0.31818   0.73050   0.54135   1.000
loop_
    _geom_bond_atom_site_label_1
    _geom_bond_atom_site_label_2
    _geom_bond_distance
    _geom_bond_site_symmetry_2
    _ccdc_geom_bond_type
    N13    C5        1.17648      .   S
    C4     N12       1.17652      .   S
    N10    C2        1.17652      .   S
    C3     N11       1.17645      .   S
    N15    C7        1.17645      .   S
    C6     N14       1.17652      .   S
    N8     C0        1.17652      .   S
    C1     N9        1.17647      .   S
