# CIF file generated by openbabel 2.4.90, see http://openbabel.sf.net
data_I
_chemical_name_common ''
_cell_length_a 7.6955
_cell_length_b 14.667
_cell_length_c 15.813
_cell_angle_alpha 90.02
_cell_angle_beta 90.05
_cell_angle_gamma 92.045
_space_group_name_H-M_alt 'P 1'
_space_group_name_Hall 'P 1'
loop_
    _symmetry_equiv_pos_as_xyz
    x,y,z
loop_
    _atom_site_label
    _atom_site_type_symbol
    _atom_site_fract_x
    _atom_site_fract_y
    _atom_site_fract_z
    _atom_site_occupancy
    H0      H    0.89567   0.61274   0.80741   1.000
    H1      H    0.87661   0.78286   0.82535   1.000
    H2      H    0.63804   0.73178   0.06743   1.000
    H3      H    0.56839   0.63615   0.15674   1.000
    H4      H    0.58336   0.35470   0.22546   1.000
    H5      H    0.72544   0.32423   0.08459   1.000
    H6      H    0.60411   0.88717   0.30713   1.000
    H7      H    0.62373   0.71713   0.32517   1.000
    H8      H    0.86384   0.76876   0.56703   1.000
    H9      H    0.93239   0.86440   0.65649   1.000
    H10     H    0.91742   0.14593   0.72511   1.000
    H11     H    0.77445   0.17612   0.58434   1.000
    H12     H    0.10432   0.38727   0.19257   1.000
    H13     H    0.12338   0.21715   0.17462   1.000
    H14     H    0.36195   0.26822   0.93255   1.000
    H15     H    0.43160   0.36385   0.84325   1.000
    H16     H    0.41663   0.64529   0.77452   1.000
    H17     H    0.27456   0.67577   0.91539   1.000
    H18     H    0.39588   0.11283   0.69285   1.000
    H19     H    0.37627   0.28287   0.67482   1.000
    H20     H    0.13615   0.23124   0.43296   1.000
    H21     H    0.06760   0.13561   0.34349   1.000
    H22     H    0.08256   0.85407   0.27487   1.000
    H23     H    0.22552   0.82388   0.41565   1.000
    Pt24    Pt   0.82282   0.44032   0.92412   1.000
    Pt25    Pt   0.67663   0.05983   0.42388   1.000
    Pt26    Pt   0.17717   0.55968   0.07586   1.000
    Pt27    Pt   0.32336   0.94017   0.57610   1.000
    C28     C    0.84379   0.64237   0.86480   1.000
    C29     C    0.82843   0.73601   0.87430   1.000
    C30     C    0.75459   0.76963   0.94845   1.000
    C31     C    0.69864   0.70721   0.01009   1.000
    C32     C    0.72529   0.61454   0.99930   1.000
    C33     C    0.68201   0.54646   0.06430   1.000
    C34     C    0.60362   0.56712   0.14087   1.000
    C35     C    0.56584   0.49845   0.19956   1.000
    C36     C    0.61153   0.40950   0.18049   1.000
    C37     C    0.68917   0.39221   0.10330   1.000
    C38     C    0.73984   0.87032   0.96672   1.000
    C39     C    0.46881   0.52081   0.27970   1.000
    C40     C    0.65641   0.85768   0.36451   1.000
    C41     C    0.67219   0.76407   0.37405   1.000
    C42     C    0.74665   0.73062   0.44816   1.000
    C43     C    0.80270   0.79317   0.50973   1.000
    C44     C    0.77545   0.88578   0.49896   1.000
    C45     C    0.81857   0.95395   0.56399   1.000
    C46     C    0.89715   0.93340   0.64058   1.000
    C47     C    0.93491   0.00000   0.69931   1.000
    C48     C    0.88916   0.09105   0.68019   1.000
    C49     C    0.81106   0.10820   0.60301   1.000
    C50     C    0.76158   0.62995   0.46655   1.000
    C51     C    0.03177   0.97960   0.77951   1.000
    C52     C    0.15622   0.35763   0.13519   1.000
    C53     C    0.17157   0.26399   0.12568   1.000
    C54     C    0.24539   0.23038   0.05152   1.000
    C55     C    0.30136   0.29279   0.98989   1.000
    C56     C    0.27471   0.38546   0.00000   1.000
    C57     C    0.31797   0.45355   0.93568   1.000
    C58     C    0.39637   0.43288   0.85911   1.000
    C59     C    0.43417   0.50155   0.80042   1.000
    C60     C    0.38846   0.59050   0.81949   1.000
    C61     C    0.31083   0.60779   0.89668   1.000
    C62     C    0.26014   0.12968   0.03326   1.000
    C63     C    0.53120   0.47919   0.72029   1.000
    C64     C    0.34358   0.14232   0.63547   1.000
    C65     C    0.32781   0.23593   0.62593   1.000
    C66     C    0.25334   0.26938   0.55182   1.000
    C67     C    0.19729   0.20683   0.49026   1.000
    C68     C    0.22454   0.11422   0.50103   1.000
    C69     C    0.18141   0.04605   0.43600   1.000
    C70     C    0.10283   0.06660   0.35940   1.000
    C71     C    0.06507   0.99787   0.30068   1.000
    C72     C    0.11082   0.90896   0.31979   1.000
    C73     C    0.18892   0.89180   0.39697   1.000
    C74     C    0.23841   0.37005   0.53343   1.000
    C75     C    0.96822   0.02040   0.22046   1.000
    N76     N    0.79699   0.58234   0.92636   1.000
    N77     N    0.72211   0.45865   0.04552   1.000
    N78     N    0.70324   0.91783   0.42605   1.000
    N79     N    0.77798   0.04169   0.54524   1.000
    N80     N    0.20300   0.41766   0.07362   1.000
    N81     N    0.27790   0.54135   0.95447   1.000
    N82     N    0.29674   0.08217   0.57393   1.000
    N83     N    0.22200   0.95831   0.45474   1.000
    O84     O    0.87881   0.91904   0.96694   1.000
    O85     O    0.59028   0.89880   0.98534   1.000
    O86     O    0.45231   0.60498   0.29611   1.000
    O87     O    0.40729   0.45419   0.32247   1.000
    O88     O    0.62248   0.58132   0.46683   1.000
    O89     O    0.91114   0.60145   0.48524   1.000
    O90     O    0.04614   0.89536   0.79616   1.000
    O91     O    0.09526   0.04600   0.82206   1.000
    O92     O    0.12118   0.08095   0.03305   1.000
    O93     O    0.40971   0.10120   0.00000   1.000
    O94     O    0.54769   0.39502   0.70387   1.000
    O95     O    0.59271   0.54582   0.67751   1.000
    O96     O    0.37752   0.41868   0.53315   1.000
    O97     O    0.08886   0.39856   0.51474   1.000
    O98     O    0.95382   0.10465   0.20382   1.000
    O99     O    0.90471   0.95399   0.17792   1.000
loop_
    _geom_bond_atom_site_label_1
    _geom_bond_atom_site_label_2
    _geom_bond_distance
    _geom_bond_site_symmetry_2
    _ccdc_geom_bond_type
    O93    C62       1.34576      .   S
    C56    N80       1.37915      .   S
    C56    C57       1.45605  1_554   S
    C56    C55       1.39097  1_554   S
    C31    H2        1.08724      .   S
    C31    C30       1.39522  1_554   S
    C31    C32       1.39225  1_554   S
    O92    C62       1.26480      .   S
    C62    C54       1.51308      .   S
    N77    C33       1.36752      .   S
    N77    C37       1.35358      .   S
    N77    Pt24      2.09173  1_554   S
    C54    C53       1.40058      .   S
    C54    C55       1.39519  1_554   S
    C33    C34       1.39135      .   S
    C33    C32       1.46365  1_554   S
    N80    Pt26      2.09981      .   S
    N80    C52       1.35325      .   S
    Pt26   N81       2.09172  1_554   S
    H5     C37       1.08593      .   S
    C37    C36       1.38677      .   S
    C53    C52       1.39076      .   S
    C53    H13       1.09147      .   S
    C52    H12       1.08835      .   S
    C34    H3        1.08677      .   S
    C34    C35       1.39301      .   S
    O99    C75       1.26685  1_565   S
    C36    C35       1.39610      .   S
    C36    H4        1.08942      .   S
    C35    C39       1.51316      .   S
    O98    C75       1.27214      .   S
    C75    C71       1.51318  1_645   S
    H22    C72       1.08940      .   S
    C39    O86       1.27222      .   S
    C39    O87       1.26669      .   S
    C71    C72       1.39604      .   S
    C71    C70       1.39315  1_565   S
    H6     C40       1.08834      .   S
    C72    C73       1.38692      .   S
    H7     C41       1.09150      .   S
    H21    C70       1.08674      .   S
    C70    C69       1.39118      .   S
    C40    C41       1.39085      .   S
    C40    N78       1.35329      .   S
    C41    C42       1.40063      .   S
    C73    H23       1.08592      .   S
    C73    N83       1.35358      .   S
    Pt25   N78       2.10025  1_545   S
    Pt25   N79       2.09156      .   S
    N78    C44       1.36990      .   S
    H20    C67       1.08722      .   S
    C69    N83       1.36755  1_545   S
    C69    C68       1.46363      .   S
    C42    C50       1.51328      .   S
    C42    C43       1.39499      .   S
    N83    Pt27      2.09157      .   S
    C50    O88       1.26501      .   S
    C50    O89       1.27299      .   S
    C67    C68       1.39234      .   S
    C67    C66       1.39500      .   S
    C44    C43       1.39232      .   S
    C44    C45       1.46362      .   S
    C68    N82       1.36990      .   S
    C43    H8        1.08723      .   S
    O97    C74       1.27299      .   S
    O96    C74       1.26502      .   S
    C74    C66       1.51329      .   S
    N79    C45       1.36755  1_545   S
    N79    C49       1.35358      .   S
    C66    C65       1.40062      .   S
    C45    C46       1.39119      .   S
    N82    Pt27      2.10024  1_545   S
    N82    C64       1.35328      .   S
    H11    C49       1.08592      .   S
    C49    C48       1.38692      .   S
    C65    C64       1.39085      .   S
    C65    H19       1.09149      .   S
    C64    H18       1.08835      .   S
    C46    H9        1.08673      .   S
    C46    C47       1.37096  1_565   S
    O95    C63       1.26670      .   S
    C48    C47       1.42554      .   S
    C48    H10       1.08941      .   S
    C47    C51       1.50607  1_645   S
    O94    C63       1.27223      .   S
    C63    C59       1.51314      .   S
    H16    C60       1.08941      .   S
    C51    O90       1.27214      .   S
    C51    O91       1.26684  1_565   S
    C59    C60       1.39611      .   S
    C59    C58       1.39301      .   S
    H0     C28       1.08834      .   S
    C60    C61       1.38678      .   S
    H1     C29       1.09149      .   S
    H15    C58       1.08677      .   S
    C58    C57       1.39135      .   S
    C28    C29       1.39076      .   S
    C28    N76       1.35322      .   S
    C29    C30       1.40057      .   S
    C61    H17       1.08593      .   S
    C61    N81       1.35357      .   S
    Pt24   N76       2.09980      .   S
    N76    C32       1.37005      .   S
    H14    C55       1.08722      .   S
    C57    N81       1.36751      .   S
    C30    C38       1.51308      .   S
    C38    O84       1.26481      .   S
    C38    O85       1.27305      .   S
