# CIF file generated by openbabel 2.4.90, see http://openbabel.sf.net
data_I
_chemical_name_common ''
_cell_length_a 7.6955
_cell_length_b 14.667
_cell_length_c 15.813
_cell_angle_alpha 90.02
_cell_angle_beta 90.05
_cell_angle_gamma 92.045
_space_group_name_H-M_alt 'P 1'
_space_group_name_Hall 'P 1'
loop_
    _symmetry_equiv_pos_as_xyz
    x,y,z
loop_
    _atom_site_label
    _atom_site_type_symbol
    _atom_site_fract_x
    _atom_site_fract_y
    _atom_site_fract_z
    _atom_site_occupancy
    N0      N    0.68112   0.60980   0.05590   1.000
    N1      N    0.18041   0.10947   0.44434   1.000
    N2      N    0.31888   0.39021   0.94344   1.000
    N3      N    0.81957   0.89044   0.55564   1.000
    Zr4     Zr   0.74498   0.43267   0.56092   1.000
    O5      O    0.55791   0.35012   0.52830   1.000
    O6      O    0.89682   0.34761   0.52600   1.000
    Zr7     Zr   0.75431   0.06745   0.06106   1.000
    O8      O    0.60237   0.15236   0.02403   1.000
    O9      O    0.94131   0.14983   0.02816   1.000
    Zr10    Zr   0.25501   0.56733   0.43906   1.000
    O11     O    0.10316   0.65237   0.47398   1.000
    O12     O    0.44208   0.64985   0.47168   1.000
    Zr13    Zr   0.24567   0.93255   0.93892   1.000
    O14     O    0.05867   0.85017   0.97167   1.000
    O15     O    0.39761   0.84764   0.97397   1.000
    O16     O    0.76636   0.56695   0.54899   1.000
    O17     O    0.61661   0.42677   0.67277   1.000
    O18     O    0.11728   0.92679   0.82688   1.000
    O19     O    0.88270   0.07319   0.17311   1.000
    O20     O    0.73354   0.93322   0.04916   1.000
    O21     O    0.26644   0.06678   0.94975   1.000
    O22     O    0.23363   0.43302   0.45099   1.000
    O23     O    0.38338   0.57323   0.32705   1.000
loop_
    _geom_bond_atom_site_label_1
    _geom_bond_atom_site_label_2
    _geom_bond_distance
    _geom_bond_site_symmetry_2
    _ccdc_geom_bond_type
    Zr4    O5        1.91791      .   S
    N1     O5        4.68173      .   S
    Zr4    O6        1.82527      .   S
    N1     O6        4.37897  1_455   S
    Zr7    O8        1.83415      .   S
    N2     O8        4.36971  1_556   S
    Zr7    O9        1.91810      .   S
    N2     O9        4.68462  1_456   S
    Zr10   O11       1.82504      .   S
    N3     O11       4.37819  1_655   S
    Zr10   O12       1.91772      .   S
    N3     O12       4.68102      .   S
    Zr13   O14       1.91739      .   S
    N0     O14       4.68239  1_654   S
    Zr13   O15       1.82438      .   S
    N0     O15       4.37603  1_554   S
    Zr4    O16       1.97959      .   S
    N3     O16       4.74878      .   S
    Zr4    O17       2.02704      .   S
    N2     O17       4.87727      .   S
    N3     O18       4.88082  1_655   S
    Zr13   O18       2.02818      .   S
    Zr7    O19       2.02817      .   S
    N1     O19       4.88074  1_455   S
    Zr7    O20       1.97845  1_545   S
    N0     O20       4.74770      .   S
    N2     O21       4.74755      .   S
    Zr13   O21       1.97690  1_565   S
    Zr10   O22       1.97991      .   S
    N1     O22       4.74974      .   S
    Zr10   O23       2.02926      .   S
    N0     O23       4.88395      .   S
