# CIF file generated by openbabel 2.4.90, see http://openbabel.sf.net
data_I
_chemical_name_common ''
_cell_length_a 7.6955
_cell_length_b 14.667
_cell_length_c 15.813
_cell_angle_alpha 90.02
_cell_angle_beta 90.05
_cell_angle_gamma 92.045
_space_group_name_H-M_alt 'P 1'
_space_group_name_Hall 'P 1'
loop_
    _symmetry_equiv_pos_as_xyz
    x,y,z
loop_
    _atom_site_label
    _atom_site_type_symbol
    _atom_site_fract_x
    _atom_site_fract_y
    _atom_site_fract_z
    _atom_site_occupancy
    N0      N    0.68112   0.60980   0.05590   1.000
    N1      N    0.18041   0.10947   0.44434   1.000
    N2      N    0.31888   0.39021   0.94344   1.000
    N3      N    0.17826   0.73076   0.05132   1.000
    N4      N    0.81957   0.89044   0.55564   1.000
    N5      N    0.07322   0.56765   0.22927   1.000
    N6      N    0.42744   0.93209   0.72955   1.000
    N7      N    0.32332   0.76913   0.55138   1.000
    N8      N    0.67667   0.23087   0.44861   1.000
    N9      N    0.92678   0.43235   0.77071   1.000
    N10     N    0.82174   0.26924   0.94866   1.000
    N11     N    0.57255   0.06791   0.27043   1.000
    Zr12    Zr   0.17717   0.55968   0.07586   1.000
    O13     O    0.14068   0.56260   0.12890   1.000
    O14     O    0.17691   0.61901   0.06791   1.000
    O15     O    0.21582   0.49956   0.04248   1.000
    O16     O    0.22518   0.51502   0.02759   1.000
    Zr17    Zr   0.74498   0.43267   0.56092   1.000
    O18     O    0.74832   0.56570   0.54784   1.000
    O19     O    0.78440   0.56821   0.55014   1.000
    O20     O    0.55791   0.35012   0.52830   1.000
    O21     O    0.89682   0.34761   0.52600   1.000
    O22     O    0.61379   0.41735   0.67442   1.000
    O23     O    0.61942   0.43620   0.67112   1.000
    Zr24    Zr   0.75431   0.06745   0.06106   1.000
    O25     O    0.60237   0.15236   0.02403   1.000
    O26     O    0.88577   0.08261   0.17473   1.000
    O27     O    0.71551   0.93196   0.05031   1.000
    O28     O    0.94131   0.14983   0.02816   1.000
    O29     O    0.75157   0.93449   0.04801   1.000
    O30     O    0.87963   0.06377   0.17149   1.000
    Zr31    Zr   0.67663   0.05983   0.42388   1.000
    O32     O    0.67600   0.11914   0.43190   1.000
    O33     O    0.64008   0.06277   0.37083   1.000
    O34     O    0.71569   0.99973   0.45709   1.000
    O35     O    0.72503   0.01521   0.47199   1.000
    Zr36    Zr   0.25501   0.56733   0.43906   1.000
    O37     O    0.21559   0.43177   0.44984   1.000
    O38     O    0.10316   0.65237   0.47398   1.000
    O39     O    0.44208   0.64985   0.47168   1.000
    O40     O    0.25167   0.43428   0.45214   1.000
    O41     O    0.38057   0.56380   0.32870   1.000
    O42     O    0.38620   0.58265   0.32540   1.000
    Zr43    Zr   0.82282   0.44032   0.92412   1.000
    O44     O    0.85932   0.43741   0.87108   1.000
    O45     O    0.82309   0.38100   0.93207   1.000
    O46     O    0.78417   0.50044   0.95734   1.000
    O47     O    0.77481   0.48498   0.97224   1.000
    Zr48    Zr   0.32336   0.94017   0.57610   1.000
    O49     O    0.35991   0.93723   0.62916   1.000
    O50     O    0.32398   0.88086   0.56808   1.000
    O51     O    0.28429   0.00025   0.54289   1.000
    O52     O    0.27495   0.98476   0.52799   1.000
    Zr53    Zr   0.24567   0.93255   0.93892   1.000
    O54     O    0.24841   0.06551   0.95182   1.000
    O55     O    0.28448   0.06804   0.94769   1.000
    O56     O    0.11421   0.91737   0.82526   1.000
    O57     O    0.12035   0.93620   0.82849   1.000
    O58     O    0.05867   0.85017   0.97167   1.000
    O59     O    0.39761   0.84764   0.97397   1.000
loop_
    _geom_bond_atom_site_label_1
    _geom_bond_atom_site_label_2
    _geom_bond_distance
    _geom_bond_site_symmetry_2
    _ccdc_geom_bond_type
    Zr12   O13       0.88619      .   S
    N5     O13       1.67266      .   S
    Zr12   O14       0.87933      .   S
    N3     O14       1.65974      .   S
    Zr12   O15       1.07863      .   S
    N2     O15       2.39688  1_556   S
    Zr12   O16       1.07976      .   S
    N2     O16       2.39491  1_556   S
    Zr17   O18       1.96132      .   S
    N4     O18       4.77658      .   S
    Zr17   O19       2.00757      .   S
    N4     O19       4.72501      .   S
    Zr17   O20       1.91791      .   S
    N1     O20       4.68173      .   S
    Zr17   O21       1.82527      .   S
    N1     O21       4.37897  1_455   S
    Zr17   O22       2.06838      .   S
    N2     O22       4.83322      .   S
    Zr17   O23       1.99491      .   S
    N2     O23       4.92500      .   S
    Zr24   O25       1.83415      .   S
    N2     O25       4.36971  1_556   S
    Zr24   O26       2.06978      .   S
    N1     O26       4.83643  1_455   S
    Zr24   O27       2.00620  1_545   S
    N0     O27       4.72397      .   S
    Zr24   O28       1.91810      .   S
    N2     O28       4.68462  1_456   S
    Zr24   O29       1.96040  1_545   S
    N0     O29       4.77545      .   S
    Zr24   O30       1.99576      .   S
    N1     O30       4.92872  1_455   S
    Zr31   O32       0.87928      .   S
    N8     O32       1.65965      .   S
    Zr31   O33       0.88617      .   S
    N11    O33       1.67261      .   S
    Zr31   O34       1.07798  1_545   S
    N4     O34       2.39333      .   S
    Zr31   O35       1.07841      .   S
    N4     O35       2.39228  1_565   S
    Zr36   O37       2.00787      .   S
    N1     O37       4.72598      .   S
    Zr36   O38       1.82504      .   S
    N4     O38       4.37819  1_655   S
    Zr36   O39       1.91772      .   S
    N4     O39       4.68102      .   S
    Zr36   O40       1.96164      .   S
    N1     O40       4.77753      .   S
    Zr36   O41       1.99713      .   S
    N0     O41       4.93165      .   S
    Zr36   O42       2.07059      .   S
    N0     O42       4.83992      .   S
    Zr43   O44       0.88620      .   S
    N9     O44       1.67267      .   S
    Zr43   O45       0.87933      .   S
    N10    O45       1.65974      .   S
    Zr43   O46       1.07739      .   S
    N0     O46       2.39193  1_554   S
    Zr43   O47       1.07797      .   S
    N0     O47       2.39070  1_554   S
    Zr48   O49       0.88617      .   S
    N6     O49       1.67262      .   S
    Zr48   O50       0.87928      .   S
    N7     O50       1.65965      .   S
    Zr48   O51       1.07771  1_565   S
    N1     O51       2.39267      .   S
    Zr48   O52       1.07821      .   S
    N1     O52       2.39153  1_545   S
    Zr53   O54       1.96012  1_565   S
    N2     O54       4.77566      .   S
    Zr53   O55       2.00379  1_565   S
    N2     O55       4.72361      .   S
    Zr53   O56       2.06981      .   S
    N4     O56       4.83648  1_655   S
    Zr53   O57       1.99575      .   S
    N4     O57       4.92883  1_655   S
    Zr53   O58       1.91739      .   S
    N0     O58       4.68239  1_654   S
    Zr53   O59       1.82438      .   S
    N0     O59       4.37603  1_554   S
