# CIF file generated by openbabel 2.4.90, see http://openbabel.sf.net
data_I
_chemical_name_common ''
_cell_length_a 7.6955
_cell_length_b 14.667
_cell_length_c 15.813
_cell_angle_alpha 90.02
_cell_angle_beta 90.05
_cell_angle_gamma 92.045
_space_group_name_H-M_alt 'P 1'
_space_group_name_Hall 'P 1'
loop_
    _symmetry_equiv_pos_as_xyz
    x,y,z
loop_
    _atom_site_label
    _atom_site_type_symbol
    _atom_site_fract_x
    _atom_site_fract_y
    _atom_site_fract_z
    _atom_site_occupancy
    Zr0     Zr   0.75431   0.06745   0.06106   1.000
    Zr1     Zr   0.74498   0.43267   0.56092   1.000
    Zr2     Zr   0.24567   0.93255   0.93892   1.000
    Zr3     Zr   0.25501   0.56733   0.43906   1.000
    Zr4     Zr   0.82282   0.44032   0.92412   1.000
    Zr5     Zr   0.67663   0.05983   0.42388   1.000
    Zr6     Zr   0.17717   0.55968   0.07586   1.000
    Zr7     Zr   0.32336   0.94017   0.57610   1.000
    N8      N    0.68112   0.60980   0.05590   1.000
    O9      O    0.74551   0.56056   0.99057   1.000
    O10     O    0.72679   0.52964   0.02036   1.000
    O11     O    0.50613   0.56028   0.21833   1.000
    O12     O    0.74884   0.80152   0.03495   1.000
    O13     O    0.87168   0.76780   0.00442   1.000
    O14     O    0.67671   0.79646   0.03955   1.000
    O15     O    0.54955   0.76273   0.00902   1.000
    O16     O    0.51739   0.59797   0.21174   1.000
    N17     N    0.18041   0.10947   0.44434   1.000
    O18     O    0.04867   0.26254   0.49109   1.000
    O19     O    0.17617   0.29621   0.46062   1.000
    O20     O    0.01724   0.09776   0.28839   1.000
    O21     O    0.00496   0.06010   0.28192   1.000
    O22     O    0.24523   0.06032   0.50968   1.000
    O23     O    0.22655   0.02936   0.47988   1.000
    O24     O    0.37083   0.26757   0.49569   1.000
    O25     O    0.24834   0.30124   0.46522   1.000
    N26     N    0.31888   0.39021   0.94344   1.000
    O27     O    0.25448   0.43944   0.00909   1.000
    O28     O    0.27320   0.47036   0.97931   1.000
    O29     O    0.12831   0.23220   0.99525   1.000
    O30     O    0.25115   0.19848   0.96472   1.000
    O31     O    0.45044   0.23727   0.98699   1.000
    O32     O    0.32328   0.20354   0.95645   1.000
    O33     O    0.48261   0.40203   0.78792   1.000
    O34     O    0.49386   0.43972   0.78133   1.000
    N35     N    0.17826   0.73076   0.05132   1.000
    O36     O    0.17666   0.67834   0.05995   1.000
    N37     N    0.81957   0.89044   0.55564   1.000
    O38     O    0.75475   0.93964   0.49030   1.000
    O39     O    0.77344   0.97060   0.52010   1.000
    O40     O    0.75165   0.69872   0.53476   1.000
    O41     O    0.62916   0.73238   0.50429   1.000
    O42     O    0.82382   0.70375   0.53936   1.000
    O43     O    0.95132   0.73741   0.50890   1.000
    O44     O    0.98274   0.90220   0.71159   1.000
    O45     O    0.99502   0.93986   0.71807   1.000
    N46     N    0.07322   0.56765   0.22927   1.000
    O47     O    0.10419   0.56551   0.18194   1.000
    N48     N    0.42744   0.93209   0.72955   1.000
    O49     O    0.39646   0.93428   0.68221   1.000
    N50     N    0.32332   0.76913   0.55138   1.000
    O51     O    0.32461   0.82155   0.56007   1.000
    N52     N    0.67667   0.23087   0.44861   1.000
    O53     O    0.67538   0.17845   0.43992   1.000
    N54     N    0.92678   0.43235   0.77071   1.000
    O55     O    0.89581   0.43449   0.81804   1.000
    N56     N    0.82174   0.26924   0.94866   1.000
    O57     O    0.82335   0.32167   0.94003   1.000
    N58     N    0.57255   0.06791   0.27043   1.000
    O59     O    0.60353   0.06572   0.31777   1.000
loop_
    _geom_bond_atom_site_label_1
    _geom_bond_atom_site_label_2
    _geom_bond_distance
    _geom_bond_site_symmetry_2
    _ccdc_geom_bond_type
    N8     O9        1.36386  1_554   S
    Zr4    O9        2.15478      .   S
    N8     O10       1.36046      .   S
    Zr4    O10       2.15594  1_556   S
    N8     O11       2.97925      .   S
    Zr3    O11       3.99427      .   S
    N8     O12       2.86100      .   S
    Zr0    O12       3.92079  1_545   S
    N8     O13       2.81859      .   S
    Zr2    O13       3.83478  1_456   S
    N8     O14       2.75151      .   S
    Zr0    O14       4.01241  1_545   S
    N8     O15       2.60165      .   S
    Zr2    O15       3.64876  1_556   S
    N8     O16       2.77143      .   S
    Zr3    O16       4.14118      .   S
    N17    O18       2.60334      .   S
    Zr1    O18       3.65053  1_655   S
    N17    O19       2.75219      .   S
    Zr3    O19       4.01574      .   S
    N17    O20       2.76884      .   S
    Zr0    O20       4.13956  1_655   S
    N17    O21       2.97775      .   S
    Zr0    O21       3.99152  1_655   S
    N17    O22       1.36427      .   S
    Zr7    O22       2.15542  1_565   S
    N17    O23       1.36104      .   S
    Zr7    O23       2.15641  1_565   S
    N17    O24       2.81744      .   S
    Zr1    O24       3.83582      .   S
    N17    O25       2.86135      .   S
    Zr3    O25       3.92328      .   S
    N26    O27       1.36769  1_556   S
    Zr6    O27       2.15726      .   S
    N26    O28       1.36256      .   S
    Zr6    O28       2.15952  1_554   S
    N26    O29       2.82010      .   S
    Zr0    O29       3.83619  1_654   S
    N26    O30       2.86161      .   S
    Zr2    O30       3.92025  1_565   S
    N26    O31       2.58708      .   S
    Zr0    O31       3.66830  1_554   S
    N26    O32       2.74704      .   S
    Zr2    O32       4.00757  1_565   S
    N26    O33       2.76692      .   S
    Zr1    O33       4.13676      .   S
    N26    O34       2.97489      .   S
    Zr1    O34       3.98982      .   S
    N35    O36       0.78070      .   S
    Zr6    O36       1.75866      .   S
    N37    O38       1.36462      .   S
    Zr5    O38       2.15596  1_545   S
    N37    O39       1.36161      .   S
    Zr5    O39       2.15681  1_545   S
    N37    O40       2.86072      .   S
    Zr1    O40       3.92264      .   S
    N37    O41       2.81691      .   S
    Zr3    O41       3.83544      .   S
    N37    O42       2.75154      .   S
    Zr1    O42       4.01513      .   S
    N37    O43       2.60278      .   S
    Zr3    O43       3.65009  1_455   S
    N37    O44       2.76885      .   S
    Zr2    O44       4.13962  1_455   S
    N37    O45       2.97789      .   S
    Zr2    O45       3.99149  1_455   S
    N46    O47       0.78653      .   S
    Zr6    O47       1.77239      .   S
    N48    O49       0.78651      .   S
    Zr7    O49       1.77234      .   S
    N50    O51       0.78065      .   S
    Zr7    O51       1.75855      .   S
    N52    O53       0.78065      .   S
    Zr5    O53       1.75855      .   S
    N54    O55       0.78653      .   S
    Zr4    O55       1.77239      .   S
    N56    O57       0.78070      .   S
    Zr4    O57       1.75866      .   S
    N58    O59       0.78651      .   S
    Zr5    O59       1.77233      .   S
