# CIF file generated by openbabel 2.4.90, see http://openbabel.sf.net
data_I
_chemical_name_common ''
_cell_length_a 12.91
_cell_length_b 18.1
_cell_length_c 26.523
_cell_angle_alpha 90.001
_cell_angle_beta 89.994
_cell_angle_gamma 90.063
_space_group_name_H-M_alt 'P 1'
_space_group_name_Hall 'P 1'
loop_
    _symmetry_equiv_pos_as_xyz
    x,y,z
loop_
    _atom_site_label
    _atom_site_type_symbol
    _atom_site_fract_x
    _atom_site_fract_y
    _atom_site_fract_z
    _atom_site_occupancy
    C0      C    0.62658   0.75297   0.70520   1.000
    C1      C    0.62932   0.82960   0.70516   1.000
    C2      C    0.62299   0.75299   0.79486   1.000
    C3      C    0.62044   0.82963   0.79489   1.000
    C4      C    0.62495   0.71162   0.75004   1.000
    C5      C    0.62520   0.87114   0.75002   1.000
    F6      F    0.63116   0.71877   0.65993   1.000
    F7      F    0.63556   0.86571   0.66049   1.000
    F8      F    0.61774   0.71876   0.84010   1.000
    F9      F    0.61339   0.86572   0.83953   1.000
loop_
    _geom_bond_atom_site_label_1
    _geom_bond_atom_site_label_2
    _geom_bond_distance
    _geom_bond_site_symmetry_2
    _ccdc_geom_bond_type
    F6     C0        1.35218      .   S
    F7     C1        1.35540      .   S
    C1     C0        1.38753      .   S
    C1     C5        1.40843      .   S
    C0     C4        1.40538      .   S
    C5     C3        1.40873      .   S
    C4     C2        1.40522      .   S
    C2     C3        1.38754      .   S
    C2     F8        1.35205      .   S
    C3     F9        1.35539      .   S
