# CIF file generated by openbabel 2.4.90, see http://openbabel.sf.net
data_I
_chemical_name_common ''
_cell_length_a 12.91
_cell_length_b 18.1
_cell_length_c 26.523
_cell_angle_alpha 90.001
_cell_angle_beta 89.994
_cell_angle_gamma 90.063
_space_group_name_H-M_alt 'P 1'
_space_group_name_Hall 'P 1'
loop_
    _symmetry_equiv_pos_as_xyz
    x,y,z
loop_
    _atom_site_label
    _atom_site_type_symbol
    _atom_site_fract_x
    _atom_site_fract_y
    _atom_site_fract_z
    _atom_site_occupancy
    Zn0     Zn   0.00003   0.49998   0.71420   1.000
    Zn1     Zn   0.50107   0.99993   0.71431   1.000
    Zn2     Zn   0.50109   0.49993   0.71431   1.000
    Zn3     Zn   0.24965   0.99991   0.78568   1.000
    Zn4     Zn   0.24965   0.49990   0.78567   1.000
    Zn5     Zn   0.75067   0.00011   0.78577   1.000
    Zn6     Zn   0.75067   0.50011   0.78578   1.000
    Zn7     Zn   0.00001   0.99999   0.28578   1.000
    Zn8     Zn   0.99997   0.50000   0.28578   1.000
    Zn9     Zn   0.50103   0.99995   0.28569   1.000
    Zn10    Zn   0.49882   0.50004   0.28569   1.000
    Zn11    Zn   0.24961   0.99992   0.21431   1.000
    Zn12    Zn   0.24933   0.49987   0.21423   1.000
    Zn13    Zn   0.75065   0.00012   0.21426   1.000
    Zn14    Zn   0.75034   0.50007   0.21433   1.000
    Zn15    Zn   0.00003   0.99999   0.71420   1.000
    C16     C    0.37497   0.37087   0.24998   1.000
    C17     C    0.37528   0.37095   0.75000   1.000
    C18     C    0.37527   0.87095   0.75000   1.000
    C19     C    0.87419   0.37096   0.75002   1.000
    C20     C    0.87420   0.87095   0.75002   1.000
    C21     C    0.12597   0.12903   0.75000   1.000
    C22     C    0.12596   0.62903   0.74999   1.000
    C23     C    0.62503   0.12908   0.75003   1.000
    C24     C    0.62502   0.62908   0.75003   1.000
    C25     C    0.12593   0.12903   0.25000   1.000
    C26     C    0.12580   0.62903   0.24998   1.000
    C27     C    0.62497   0.12912   0.24998   1.000
    C28     C    0.37523   0.87099   0.25000   1.000
    C29     C    0.87402   0.37096   0.25000   1.000
    C30     C    0.87414   0.87095   0.25000   1.000
    O31     O    0.41792   0.40333   0.71280   1.000
    O32     O    0.41790   0.90332   0.71279   1.000
    O33     O    0.91630   0.40342   0.71272   1.000
    O34     O    0.91630   0.90342   0.71272   1.000
    O35     O    0.16828   0.09675   0.78730   1.000
    O36     O    0.16828   0.59674   0.78730   1.000
    O37     O    0.66737   0.09665   0.78725   1.000
    O38     O    0.66736   0.59664   0.78725   1.000
    O39     O    0.33260   0.40331   0.78718   1.000
    O40     O    0.33260   0.90331   0.78718   1.000
    O41     O    0.83204   0.40324   0.78738   1.000
    O42     O    0.83202   0.90324   0.78737   1.000
    O43     O    0.08369   0.09657   0.71274   1.000
    O44     O    0.08368   0.59657   0.71274   1.000
    O45     O    0.58266   0.09677   0.71272   1.000
    O46     O    0.58267   0.59677   0.71270   1.000
    O47     O    0.08368   0.09657   0.28726   1.000
    O48     O    0.08367   0.59657   0.28728   1.000
    O49     O    0.58259   0.09679   0.28729   1.000
    O50     O    0.33262   0.40332   0.21276   1.000
    O51     O    0.33260   0.90334   0.21281   1.000
    O52     O    0.83172   0.40324   0.21270   1.000
    O53     O    0.83200   0.90324   0.21260   1.000
    O54     O    0.16824   0.09675   0.21268   1.000
    O55     O    0.16796   0.59674   0.21263   1.000
    O56     O    0.66737   0.09667   0.21270   1.000
    O57     O    0.41732   0.40320   0.28729   1.000
    O58     O    0.41785   0.90334   0.28721   1.000
    O59     O    0.91630   0.40342   0.28727   1.000
    O60     O    0.91630   0.90341   0.28728   1.000
    O61     O    0.62564   0.94501   0.70000   1.000
    Ts62    Ts   0.00002   0.49999   0.68766   1.000
    Ts63    Ts   0.95856   0.51833   0.72615   1.000
    Ts64    Ts   0.04148   0.48164   0.72615   1.000
    Ts65    Ts   0.50088   0.99995   0.68771   1.000
    Ts66    Ts   0.45915   0.01826   0.72620   1.000
    Ts67    Ts   0.50090   0.49994   0.68771   1.000
    Ts68    Ts   0.45917   0.51825   0.72620   1.000
    Ts69    Ts   0.54261   0.48163   0.72621   1.000
    Ts70    Ts   0.24977   0.99992   0.81226   1.000
    Ts71    Ts   0.29153   0.01824   0.77378   1.000
    Ts72    Ts   0.20789   0.98159   0.77380   1.000
    Ts73    Ts   0.24977   0.49992   0.81225   1.000
    Ts74    Ts   0.29154   0.51824   0.77378   1.000
    Ts75    Ts   0.20789   0.48159   0.77379   1.000
    Ts76    Ts   0.75049   0.00009   0.81233   1.000
    Ts77    Ts   0.79232   0.01842   0.77386   1.000
    Ts78    Ts   0.75049   0.50009   0.81234   1.000
    Ts79    Ts   0.79232   0.51842   0.77387   1.000
    Ts80    Ts   0.70900   0.48174   0.77385   1.000
    Ts81    Ts   0.00001   1.00000   0.31233   1.000
    Ts82    Ts   0.04146   0.98165   0.27384   1.000
    Ts83    Ts   0.95855   0.01834   0.27384   1.000
    Ts84    Ts   0.99998   0.50000   0.31233   1.000
    Ts85    Ts   0.04143   0.48165   0.27384   1.000
    Ts86    Ts   0.95852   0.51834   0.27384   1.000
    Ts87    Ts   0.50080   0.99997   0.31227   1.000
    Ts88    Ts   0.54255   0.98163   0.27380   1.000
    Ts89    Ts   0.45908   0.01826   0.27380   1.000
    Ts90    Ts   0.49902   0.50003   0.31227   1.000
    Ts91    Ts   0.52657   0.53224   0.28620   1.000
    Ts92    Ts   0.54077   0.48173   0.27380   1.000
    Ts93    Ts   0.45732   0.51836   0.27380   1.000
    Ts94    Ts   0.24973   0.99993   0.18771   1.000
    Ts95    Ts   0.20787   0.98160   0.22619   1.000
    Ts96    Ts   0.29147   0.01824   0.22621   1.000
    Ts97    Ts   0.24951   0.49990   0.18765   1.000
    Ts98    Ts   0.20767   0.48156   0.22614   1.000
    Ts99    Ts   0.29099   0.51825   0.22616   1.000
    Ts100   Ts   0.75046   0.00010   0.18770   1.000
    Ts101   Ts   0.70896   0.98175   0.22618   1.000
    Ts102   Ts   0.79231   0.01843   0.22616   1.000
    Ts103   Ts   0.75022   0.50006   0.18776   1.000
    Ts104   Ts   0.72269   0.53227   0.21383   1.000
    Ts105   Ts   0.70845   0.48175   0.22622   1.000
    Ts106   Ts   0.79210   0.51839   0.22621   1.000
    Ts107   Ts   0.00002   0.99999   0.68766   1.000
    Ts108   Ts   0.95856   0.01834   0.72615   1.000
    Ts109   Ts   0.04148   0.98164   0.72615   1.000
    Og110   Og   0.37501   0.34336   0.24998   1.000
    Og111   Og   0.37528   0.34343   0.75000   1.000
    Og112   Og   0.37528   0.84342   0.75000   1.000
    Og113   Og   0.87425   0.34345   0.75003   1.000
    Og114   Og   0.87425   0.84344   0.75003   1.000
    Og115   Og   0.12589   0.15654   0.75001   1.000
    Og116   Og   0.12589   0.65654   0.75000   1.000
    Og117   Og   0.62500   0.15660   0.75003   1.000
    Og118   Og   0.62500   0.65659   0.75003   1.000
    Og119   Og   0.12585   0.15654   0.24999   1.000
    Og120   Og   0.12575   0.65654   0.24997   1.000
    Og121   Og   0.62493   0.15663   0.24998   1.000
    Og122   Og   0.37522   0.84346   0.25000   1.000
    Og123   Og   0.87411   0.34345   0.24999   1.000
    Og124   Og   0.87420   0.84344   0.24999   1.000
loop_
    _geom_bond_atom_site_label_1
    _geom_bond_atom_site_label_2
    _geom_bond_distance
    _geom_bond_site_symmetry_2
    _ccdc_geom_bond_type
    O53    Zn13      2.04551  1_565   S
    O53    C30       1.27370      .   S
    O55    Zn12      2.04542      .   S
    O55    C26       1.27264      .   S
    O54    Zn11      2.04490  1_545   S
    O54    C25       1.27277      .   S
    O52    Zn14      2.04487      .   S
    O52    C29       1.27246      .   S
    O56    Zn13      2.05323      .   S
    O56    C27       1.27392      .   S
    O50    Zn12      2.05320      .   S
    O50    C16       1.27255      .   S
    O51    Zn11      2.05168      .   S
    O51    C28       1.27262      .   S
    C27    O49       1.27293      .   S
    C26    O48       1.27240      .   S
    C16    O57       1.27276      .   S
    C25    O47       1.27221      .   S
    C28    O58       1.27242      .   S
    C29    O59       1.27262      .   S
    C30    O60       1.27222      .   S
    Zn10   O57       2.04390      .   S
    Zn9    O58       2.05138      .   S
    Zn9    O49       2.04421  1_565   S
    Zn8    O59       2.05434      .   S
    Zn8    O48       2.05426  1_655   S
    Zn7    O47       2.05424  1_565   S
    Zn7    O60       2.05449  1_455   S
    O61    Zn1       1.92930      .   S
    O46    Zn2       2.04425      .   S
    O46    C24       1.27307      .   S
    O33    Zn0       2.05432  1_655   S
    O33    C19       1.27231      .   S
    O34    Zn15      2.05452  1_655   S
    O34    C20       1.27225      .   S
    O45    Zn1       2.04436  1_545   S
    O45    C23       1.27275      .   S
    O43    Zn15      2.05425  1_545   S
    O43    C21       1.27243      .   S
    O44    Zn0       2.05425      .   S
    O44    C22       1.27223      .   S
    O32    Zn1       2.05137      .   S
    O32    C18       1.27260      .   S
    O31    Zn2       2.05132      .   S
    O31    C17       1.27246      .   S
    C22    O36       1.27277      .   S
    C17    O39       1.27267      .   S
    C18    O40       1.27262      .   S
    C21    O35       1.27253      .   S
    C20    O42       1.27273      .   S
    C19    O41       1.27282      .   S
    C23    O37       1.27234      .   S
    C24    O38       1.27235      .   S
    Zn4    O39       2.05162      .   S
    Zn4    O36       2.04495      .   S
    Zn3    O40       2.05170      .   S
    Zn3    O35       2.04494  1_565   S
    Zn5    O37       2.05305      .   S
    Zn5    O42       2.04541  1_545   S
    Zn6    O38       2.05306      .   S
    Zn6    O41       2.04536      .   S
    Zn0    Ts62      0.70383      .   S
    Zn0    Ts63      0.70545  1_455   S
    Zn0    Ts64      0.70526      .   S
    Zn1    Ts65      0.70560      .   S
    Zn1    Ts66      0.70905  1_565   S
    Zn2    Ts67      0.70560      .   S
    Zn2    Ts68      0.70908      .   S
    Zn2    Ts69      0.70508      .   S
    Zn3    Ts70      0.70489      .   S
    Zn3    Ts71      0.70824  1_565   S
    Zn3    Ts72      0.70674      .   S
    Zn4    Ts73      0.70489      .   S
    Zn4    Ts74      0.70823      .   S
    Zn4    Ts75      0.70668      .   S
    Zn5    Ts76      0.70445      .   S
    Zn5    Ts77      0.70594      .   S
    Zn6    Ts78      0.70454      .   S
    Zn6    Ts79      0.70596      .   S
    Zn6    Ts80      0.70686      .   S
    Zn7    Ts81      0.70410      .   S
    Zn7    Ts82      0.70518      .   S
    Zn7    Ts83      0.70536  1_465   S
    Zn8    Ts84      0.70410      .   S
    Zn8    Ts85      0.70530  1_655   S
    Zn8    Ts86      0.70524      .   S
    Zn9    Ts87      0.70499      .   S
    Zn9    Ts88      0.70504      .   S
    Zn9    Ts89      0.70925  1_565   S
    Zn10   Ts90      0.70499      .   S
    Zn10   Ts91      0.68389      .   S
    Zn10   Ts92      0.70923      .   S
    Zn10   Ts93      0.70490      .   S
    Zn11   Ts94      0.70560      .   S
    Zn11   Ts95      0.70663      .   S
    Zn11   Ts96      0.70803  1_565   S
    Zn12   Ts97      0.70490      .   S
    Zn12   Ts98      0.70596      .   S
    Zn12   Ts99      0.70688      .   S
    Zn13   Ts100     0.70446      .   S
    Zn13   Ts101     0.70693  1_545   S
    Zn13   Ts102     0.70592      .   S
    Zn14   Ts103     0.70481      .   S
    Zn14   Ts104     0.68383      .   S
    Zn14   Ts105     0.70820      .   S
    Zn14   Ts106     0.70664      .   S
    Zn15   Ts107     0.70383      .   S
    Zn15   Ts108     0.70545  1_465   S
    Zn15   Ts109     0.70525      .   S
    C16    Og110     0.49795      .   S
    C17    Og111     0.49820      .   S
    C18    Og112     0.49820      .   S
    C19    Og113     0.49797      .   S
    C20    Og114     0.49797      .   S
    C21    Og115     0.49799      .   S
    C22    Og116     0.49799      .   S
    C23    Og117     0.49797      .   S
    C24    Og118     0.49797      .   S
    C25    Og119     0.49799      .   S
    C26    Og120     0.49797      .   S
    C27    Og121     0.49795      .   S
    C28    Og122     0.49821      .   S
    C29    Og123     0.49799      .   S
    C30    Og124     0.49797      .   S
