# CIF file generated by openbabel 2.4.90, see http://openbabel.sf.net
data_I
_chemical_name_common ''
_cell_length_a 12.91
_cell_length_b 18.1
_cell_length_c 26.523
_cell_angle_alpha 90.001
_cell_angle_beta 89.994
_cell_angle_gamma 90.063
_space_group_name_H-M_alt 'P 1'
_space_group_name_Hall 'P 1'
loop_
    _symmetry_equiv_pos_as_xyz
    x,y,z
loop_
    _atom_site_label
    _atom_site_type_symbol
    _atom_site_fract_x
    _atom_site_fract_y
    _atom_site_fract_z
    _atom_site_occupancy
    Zr0     Zr   0.00003   0.99999   0.71420   1.000
    Zr1     Zr   0.00003   0.49998   0.71420   1.000
    Zr2     Zr   0.50107   0.99993   0.71431   1.000
    Zr3     Zr   0.50109   0.49993   0.71431   1.000
    Zr4     Zr   0.24965   0.99991   0.78568   1.000
    Zr5     Zr   0.24965   0.49990   0.78567   1.000
    Zr6     Zr   0.75067   0.00011   0.78577   1.000
    Zr7     Zr   0.75067   0.50011   0.78578   1.000
    Zr8     Zr   0.00001   0.99999   0.28578   1.000
    Zr9     Zr   0.50103   0.99995   0.28569   1.000
    Zr10    Zr   0.24961   0.99992   0.21431   1.000
    Zr11    Zr   0.75065   0.00012   0.21426   1.000
    Zr12    Zr   0.62564   0.94501   0.70000   1.000
    O13     O    0.56335   0.97247   0.70715   1.000
    N14     N    0.74999   0.99997   0.00001   1.000
    O15     O    0.75018   0.00003   0.08722   1.000
    O16     O    0.75019   0.00003   0.91281   1.000
    N17     N    0.25005   0.00000   0.99997   1.000
    O18     O    0.24991   0.99997   0.08719   1.000
    O19     O    0.24993   0.99996   0.91276   1.000
    N20     N    0.87480   0.69439   0.75003   1.000
    O21     O    0.90631   0.61095   0.74108   1.000
    O22     O    0.84397   0.61098   0.75897   1.000
    N23     N    0.37520   0.69438   0.25000   1.000
    N24     N    0.37535   0.19431   0.24998   1.000
    O25     O    0.34388   0.11086   0.24107   1.000
    O26     O    0.40673   0.11087   0.25892   1.000
    N27     N    0.12520   0.30559   0.24997   1.000
    N28     N    0.87480   0.19439   0.75003   1.000
    O29     O    0.90632   0.11095   0.74108   1.000
    O30     O    0.84398   0.11098   0.75897   1.000
    N31     N    0.62482   0.30563   0.75002   1.000
    O32     O    0.59410   0.38905   0.74109   1.000
    O33     O    0.65649   0.38910   0.75895   1.000
    N34     N    0.00000   0.00000   0.50000   1.000
    O35     O    0.00001   1.00000   0.58720   1.000
    O36     O    0.00000   0.00000   0.41280   1.000
    N37     N    0.74995   0.49997   0.00000   1.000
    O38     O    0.75018   0.50002   0.91281   1.000
    N39     N    0.87478   0.69439   0.24997   1.000
    N40     N    0.49996   0.49998   0.49990   1.000
    O41     O    0.50039   0.49996   0.58715   1.000
    N42     N    0.62459   0.30568   0.24999   1.000
    N43     N    0.25003   0.50000   0.99996   1.000
    O44     O    0.24993   0.49996   0.91275   1.000
    N45     N    1.00000   0.49999   0.50000   1.000
    O46     O    0.00000   0.49999   0.58720   1.000
    N47     N    0.37543   0.19433   0.75000   1.000
    O48     O    0.34395   0.11087   0.75892   1.000
    O49     O    0.40681   0.11087   0.74107   1.000
    N50     N    0.87478   0.19440   0.24998   1.000
    O51     O    0.90630   0.11096   0.25892   1.000
    O52     O    0.84396   0.11099   0.24104   1.000
    N53     N    0.12522   0.80559   0.75003   1.000
    O54     O    0.09371   0.88903   0.74107   1.000
    O55     O    0.15612   0.88901   0.75894   1.000
    N56     N    0.37542   0.69433   0.75000   1.000
    O57     O    0.34395   0.61086   0.75891   1.000
    O58     O    0.40681   0.61087   0.74107   1.000
    N59     N    0.62476   0.80561   0.24546   1.000
    O60     O    0.59403   0.88904   0.25666   1.000
    O61     O    0.65644   0.88908   0.23880   1.000
    N62     N    0.50025   0.00005   0.49987   1.000
    O63     O    0.50052   0.00000   0.58714   1.000
    O64     O    0.50046   0.00001   0.41271   1.000
    N65     N    0.12522   0.30560   0.75003   1.000
    O66     O    0.09371   0.38903   0.74107   1.000
    O67     O    0.15612   0.38902   0.75894   1.000
    N68     N    0.12520   0.80560   0.24997   1.000
    O69     O    0.09369   0.88904   0.25892   1.000
    O70     O    0.15609   0.88902   0.24105   1.000
    N71     N    0.62472   0.60743   0.25001   1.000
    C72     C    0.37526   0.89253   0.74999   1.000
    O73     O    0.33319   0.92207   0.76821   1.000
    O74     O    0.41737   0.92208   0.73177   1.000
    O75     O    0.37531   0.82726   0.75000   1.000
    C76     C    0.62502   0.10750   0.75000   1.000
    O77     O    0.66702   0.07794   0.76825   1.000
    O78     O    0.58344   0.07793   0.73176   1.000
    O79     O    0.62496   0.17275   0.75001   1.000
    C80     C    0.12598   0.10745   0.75001   1.000
    O81     O    0.12576   0.17270   0.75002   1.000
    O82     O    0.08392   0.07786   0.73174   1.000
    O83     O    0.16747   0.07789   0.76825   1.000
    C84     C    0.87417   0.89254   0.75004   1.000
    O85     O    0.91617   0.92212   0.73175   1.000
    O86     O    0.83276   0.92211   0.76830   1.000
    O87     O    0.87435   0.82729   0.75003   1.000
    C88     C    0.37523   0.89256   0.25001   1.000
    O89     O    0.37522   0.82730   0.25000   1.000
    O90     O    0.41733   0.92210   0.26823   1.000
    O91     O    0.33317   0.92209   0.23178   1.000
    C92     C    0.62498   0.10753   0.24999   1.000
    O93     O    0.62486   0.17278   0.24999   1.000
    O94     O    0.58339   0.07795   0.26824   1.000
    O95     O    0.66699   0.07796   0.23173   1.000
    C96     C    0.12595   0.10745   0.24998   1.000
    O97     O    0.16744   0.07789   0.23174   1.000
    O98     O    0.08390   0.07786   0.26825   1.000
    O99     O    0.12573   0.17270   0.24998   1.000
    C100    C    0.87415   0.89253   0.24996   1.000
    O101    O    0.87433   0.82728   0.24997   1.000
    O102    O    0.83274   0.92211   0.23169   1.000
    O103    O    0.91615   0.92212   0.26825   1.000
    Zr104   Zr   0.12483   0.47518   0.24999   1.000
    O105    O    0.89581   0.52654   0.24089   1.000
    O106    O    0.89044   0.43216   0.24554   1.000
    O107    O    0.93745   0.48759   0.16862   1.000
    O108    O    0.99965   0.36861   0.24999   1.000
    O109    O    0.35371   0.52653   0.25911   1.000
    O110    O    0.35900   0.43215   0.25446   1.000
    O111    O    0.31219   0.48759   0.33136   1.000
    O112    O    0.25001   0.36857   0.24999   1.000
    O113    O    0.06241   0.48759   0.33140   1.000
    O114    O    0.18732   0.48757   0.16858   1.000
    O115    O    0.12515   0.60656   0.24998   1.000
    C116    C    0.62502   0.60750   0.74999   1.000
    O117    O    0.58345   0.57792   0.73175   1.000
    O118    O    0.66702   0.57794   0.76825   1.000
    C119    C    0.37527   0.39253   0.74999   1.000
    O120    O    0.41739   0.42208   0.73177   1.000
    O121    O    0.37531   0.32726   0.75000   1.000
    O122    O    0.33320   0.42207   0.76821   1.000
    C123    C    0.12598   0.60745   0.75001   1.000
    O124    O    0.16747   0.57789   0.76825   1.000
    O125    O    0.12575   0.67270   0.75001   1.000
    O126    O    0.08391   0.57786   0.73174   1.000
    C127    C    0.87418   0.39254   0.75004   1.000
    O128    O    0.91617   0.42212   0.73175   1.000
    O129    O    0.83276   0.42211   0.76831   1.000
    O130    O    0.87436   0.32729   0.75004   1.000
    O131    O    0.24977   0.54305   0.24999   1.000
    O132    O    0.12484   0.43210   0.24999   1.000
    O133    O    0.99996   0.54307   0.24999   1.000
loop_
    _geom_bond_atom_site_label_1
    _geom_bond_atom_site_label_2
    _geom_bond_distance
    _geom_bond_site_symmetry_2
    _ccdc_geom_bond_type
    Zr12   O13       0.96465      .   S
    Zr2    O13       0.96465      .   S
    N14    O15       2.31291  1_565   S
    Zr11   O15       3.36959      .   S
    N14    O16       2.31283  1_564   S
    Zr6    O16       3.36951      .   S
    N17    O18       2.31321  1_546   S
    Zr10   O18       3.37161      .   S
    N17    O19       2.31320  1_545   S
    Zr4    O19       3.37054      .   S
    N20    O21       1.58247      .   S
    Zr1    O21       2.45173  1_455   S
    N20    O22       1.57874      .   S
    Zr7    O22       2.44502      .   S
    N24    O25       1.58156      .   S
    Zr10   O25       2.45189  1_565   S
    N24    O26       1.58204      .   S
    Zr9    O26       2.45401  1_565   S
    N28    O29       1.58247      .   S
    Zr0    O29       2.45174  1_465   S
    N28    O30       1.57873      .   S
    Zr6    O30       2.44498      .   S
    N31    O32       1.57943      .   S
    Zr3    O32       2.44531      .   S
    N31    O33       1.58245      .   S
    Zr7    O33       2.45289      .   S
    N34    O35       2.31277  1_545   S
    Zr0    O35       3.36851      .   S
    N34    O36       2.31278      .   S
    Zr8    O36       3.36892  1_565   S
    N37    O38       2.31252  1_554   S
    Zr7    O38       3.36934      .   S
    N40    O41       2.31424      .   S
    Zr3    O41       3.37265      .   S
    N43    O44       2.31317      .   S
    Zr5    O44       3.37051      .   S
    N45    O46       2.31274  1_655   S
    Zr1    O46       3.36849      .   S
    N47    O48       1.58171      .   S
    Zr4    O48       2.45233  1_565   S
    N47    O49       1.58216      .   S
    Zr2    O49       2.45399  1_565   S
    N50    O51       1.58248      .   S
    Zr8    O51       2.45166  1_465   S
    N50    O52       1.57871      .   S
    Zr11   O52       2.44490      .   S
    N53    O54       1.58243      .   S
    Zr0    O54       2.45141      .   S
    N53    O55       1.57908      .   S
    Zr4    O55       2.44636      .   S
    N56    O57       1.58169      .   S
    Zr5    O57       2.45229      .   S
    N56    O58       1.58217      .   S
    Zr3    O58       2.45403      .   S
    N59    O60       1.58971      .   S
    Zr9    O60       2.46365      .   S
    N59    O61       1.57474      .   S
    Zr11   O61       2.43648  1_545   S
    N62    O63       2.31461      .   S
    Zr2    O63       3.37301  1_565   S
    N62    O64       2.31161      .   S
    Zr9    O64       3.36908  1_565   S
    N65    O66       1.58241      .   S
    Zr1    O66       2.45137      .   S
    N65    O67       1.57904      .   S
    Zr5    O67       2.44622      .   S
    N68    O69       1.58237      .   S
    Zr8    O69       2.45124      .   S
    N68    O70       1.57909      .   S
    Zr10   O70       2.44629      .   S
    C72    O73       0.90274      .   S
    Zr4    O73       1.83470      .   S
    C72    O74       0.90251      .   S
    Zr2    O74       1.83423      .   S
    C72    O75       1.18133      .   S
    N56    O75       2.40612      .   S
    C76    O77       0.90299      .   S
    Zr6    O77       1.83571      .   S
    C76    O78       0.89899      .   S
    Zr2    O78       1.82610  1_565   S
    C76    O79       1.18095      .   S
    N31    O79       2.40524      .   S
    C80    O81       1.18102      .   S
    N65    O81       2.40548      .   S
    C80    O82       0.90325      .   S
    Zr0    O82       1.83658  1_565   S
    C80    O83       0.89884      .   S
    Zr4    O83       1.82616  1_565   S
    C84    O85       0.90292      .   S
    Zr0    O85       1.83624  1_455   S
    C84    O86       0.89866      .   S
    Zr6    O86       1.82608  1_545   S
    C84    O87       1.18102      .   S
    N20    O87       2.40546      .   S
    C88    O89       1.18119      .   S
    N23    O89       2.40587      .   S
    C88    O90       0.90246      .   S
    Zr9    O90       1.83416      .   S
    C88    O91       0.90275      .   S
    Zr10   O91       1.83470      .   S
    C92    O93       1.18109      .   S
    N42    O93       2.40549      .   S
    C92    O94       0.89915      .   S
    Zr9    O94       1.82610  1_565   S
    C92    O95       0.90311      .   S
    Zr11   O95       1.83562      .   S
    C96    O97       0.89876      .   S
    Zr10   O97       1.82598  1_565   S
    C96    O98       0.90311      .   S
    Zr8    O98       1.83639  1_565   S
    C96    O99       1.18100      .   S
    N27    O99       2.40544      .   S
    C100   O101      1.18104      .   S
    N39    O101      2.40549      .   S
    C100   O102      0.89873      .   S
    Zr11   O102      1.82600  1_545   S
    C100   O103      0.90298      .   S
    Zr8    O103      1.83622  1_455   S
    Zr104  O105      3.10972  1_455   S
    N71    O105      3.80285      .   S
    Zr104  O106      3.12601  1_455   S
    N42    O106      4.12510      .   S
    Zr104  O107      3.25022  1_455   S
    N37    O107      5.09040      .   S
    Zr104  O108      2.51508  1_455   S
    N50    O108      3.53991      .   S
    Zr104  O109      3.10600      .   S
    N71    O109      3.79899      .   S
    Zr104  O110      3.12489      .   S
    N42    O110      4.12650      .   S
    Zr104  O111      3.24930      .   S
    N40    O111      5.09016      .   S
    Zr104  O112      2.51836      .   S
    N24    O112      3.54651      .   S
    Zr104  O113      2.31547      .   S
    N45    O113      4.54938  1_655   S
    Zr104  O114      2.31586      .   S
    N43    O114      4.55033  1_556   S
    Zr104  O115      2.37805      .   S
    N68    O115      3.60250      .   S
    C116   O117      0.89893      .   S
    Zr3    O117      1.82590      .   S
    C116   O118      0.90306      .   S
    Zr7    O118      1.83577      .   S
    C119   O120      0.90254      .   S
    Zr3    O120      1.83428      .   S
    C119   O121      1.18133      .   S
    N47    O121      2.40611      .   S
    C119   O122      0.90269      .   S
    Zr5    O122      1.83460      .   S
    C123   O124      0.89885      .   S
    Zr5    O124      1.82614      .   S
    C123   O125      1.18102      .   S
    N53    O125      2.40547      .   S
    C123   O126      0.90323      .   S
    Zr1    O126      1.83658      .   S
    C127   O128      0.90290      .   S
    Zr1    O128      1.83610  1_455   S
    C127   O129      0.89868      .   S
    Zr7    O129      1.82605      .   S
    C127   O130      1.18102      .   S
    N28    O130      2.40546      .   S
    N23    O131      3.18028      .   S
    Zr104  O131      2.02638      .   S
    N27    O132      2.28976      .   S
    Zr104  O132      0.77976      .   S
    Zr104  O133      2.02814  1_455   S
    N39    O133      3.18160      .   S
