# CIF file generated by openbabel 2.4.90, see http://openbabel.sf.net
data_I
_chemical_name_common ''
_cell_length_a 7.639
_cell_length_b 12.824
_cell_length_c 12.929
_cell_angle_alpha 80.642
_cell_angle_beta 85.374
_cell_angle_gamma 85.506
_space_group_name_H-M_alt 'P 1'
_space_group_name_Hall 'P 1'
loop_
    _symmetry_equiv_pos_as_xyz
    x,y,z
loop_
    _atom_site_label
    _atom_site_type_symbol
    _atom_site_fract_x
    _atom_site_fract_y
    _atom_site_fract_z
    _atom_site_occupancy
    Zr0     Zr   0.43027   0.28405   0.22680   1.000
    Zr1     Zr   0.06784   0.77377   0.71581   1.000
    Zr2     Zr   0.56972   0.71593   0.77323   1.000
    Zr3     Zr   0.93216   0.22621   0.28422   1.000
    N4      N    0.75053   0.20674   0.79323   1.000
    O5      O    0.62886   0.25769   0.97879   1.000
    O6      O    0.80464   0.21216   0.00956   1.000
    O7      O    0.70270   0.43003   0.78673   1.000
    O8      O    0.89977   0.45236   0.76446   1.000
    O9      O    0.87197   0.02217   0.74204   1.000
    O10     O    0.69718   0.99077   0.78709   1.000
    O11     O    0.79787   0.21351   0.56954   1.000
    O12     O    0.59970   0.23552   0.54766   1.000
    N13     N    0.24947   0.79318   0.20682   1.000
    O14     O    0.37114   0.74226   0.02126   1.000
    O15     O    0.19536   0.78779   0.99048   1.000
    O16     O    0.29730   0.56992   0.21332   1.000
    O17     O    0.10023   0.54759   0.23558   1.000
    O18     O    0.12803   0.97778   0.25801   1.000
    O19     O    0.30282   0.00918   0.21296   1.000
    O20     O    0.20212   0.78644   0.43050   1.000
    O21     O    0.40030   0.76443   0.45238   1.000
loop_
    _geom_bond_atom_site_label_1
    _geom_bond_atom_site_label_2
    _geom_bond_distance
    _geom_bond_site_symmetry_2
    _ccdc_geom_bond_type
    N4     O5        2.66476      .   S
    Zr0    O5        3.49073  1_554   S
    N4     O6        2.87274  1_556   S
    Zr3    O6        3.79271      .   S
    N4     O7        2.84654      .   S
    Zr2    O7        3.70695      .   S
    N4     O8        3.38713      .   S
    Zr1    O8        4.34608  1_455   S
    N4     O9        2.63963      .   S
    Zr1    O9        3.46750  1_465   S
    N4     O10       2.84547  1_545   S
    Zr2    O10       3.76480      .   S
    N4     O11       2.87353      .   S
    Zr3    O11       3.72929      .   S
    N4     O12       3.41859      .   S
    Zr0    O12       4.37856      .   S
    N13    O14       2.66477      .   S
    Zr2    O14       3.49079  1_556   S
    N13    O15       2.87282  1_554   S
    Zr1    O15       3.79278      .   S
    N13    O16       2.84619      .   S
    Zr0    O16       3.70661      .   S
    N13    O17       3.38679      .   S
    Zr3    O17       4.34574  1_655   S
    N13    O18       2.63992      .   S
    Zr3    O18       3.46779  1_645   S
    N13    O19       2.84581  1_565   S
    Zr0    O19       3.76512      .   S
    N13    O20       2.87343      .   S
    Zr1    O20       3.72918      .   S
    N13    O21       3.41847      .   S
    Zr2    O21       4.37841      .   S
