# CIF file generated by openbabel 2.4.90, see http://openbabel.sf.net
data_I
_chemical_name_common ''
_cell_length_a 7.639
_cell_length_b 12.824
_cell_length_c 12.929
_cell_angle_alpha 80.642
_cell_angle_beta 85.374
_cell_angle_gamma 85.506
_space_group_name_H-M_alt 'P 1'
_space_group_name_Hall 'P 1'
loop_
    _symmetry_equiv_pos_as_xyz
    x,y,z
loop_
    _atom_site_label
    _atom_site_type_symbol
    _atom_site_fract_x
    _atom_site_fract_y
    _atom_site_fract_z
    _atom_site_occupancy
    N0      N    0.75053   0.20674   0.79323   1.000
    N1      N    0.24947   0.79318   0.20682   1.000
    Zr2     Zr   0.93216   0.22621   0.28422   1.000
    O3      O    0.86840   0.21919   0.14689   1.000
    O4      O    0.86502   0.21986   0.42688   1.000
    O5      O    0.03009   0.10200   0.27111   1.000
    O6      O    0.01620   0.38690   0.25990   1.000
    Zr7     Zr   0.56972   0.71593   0.77323   1.000
    O8      O    0.48501   0.74018   0.61281   1.000
    O9      O    0.63621   0.57298   0.77998   1.000
    O10     O    0.63345   0.85335   0.78016   1.000
    O11     O    0.47043   0.72910   0.89724   1.000
    Zr12    Zr   0.06784   0.77377   0.71581   1.000
    O13     O    0.13498   0.78010   0.57316   1.000
    O14     O    0.98380   0.61306   0.74014   1.000
    O15     O    0.96990   0.89797   0.72893   1.000
    O16     O    0.13160   0.78078   0.85315   1.000
    Zr17    Zr   0.43027   0.28405   0.22680   1.000
    O18     O    0.52957   0.27087   0.10279   1.000
    O19     O    0.51499   0.25978   0.38723   1.000
    O20     O    0.36655   0.14661   0.21988   1.000
    O21     O    0.36379   0.42698   0.22006   1.000
loop_
    _geom_bond_atom_site_label_1
    _geom_bond_atom_site_label_2
    _geom_bond_distance
    _geom_bond_site_symmetry_2
    _ccdc_geom_bond_type
    Zr2    O3        1.89635      .   S
    N0     O3        4.76101  1_556   S
    Zr2    O4        1.86465      .   S
    N0     O4        4.72485      .   S
    Zr2    O5        1.73390  1_655   S
    N1     O5        4.35762  1_565   S
    Zr2    O6        2.17287  1_655   S
    N1     O6        5.55757      .   S
    Zr7    O8        2.18921      .   S
    N1     O8        5.60559      .   S
    Zr7    O9        1.85348      .   S
    N0     O9        4.68725      .   S
    Zr7    O10       1.88240      .   S
    N0     O10       4.71963  1_545   S
    Zr7    O11       1.74540      .   S
    N1     O11       4.39403  1_554   S
    Zr12   O13       1.86459      .   S
    N1     O13       4.72469      .   S
    Zr12   O14       2.17304  1_455   S
    N0     O14       5.55808      .   S
    Zr12   O15       1.73375  1_455   S
    N0     O15       4.35718  1_545   S
    Zr12   O16       1.89639      .   S
    N1     O16       4.76112  1_554   S
    Zr17   O18       1.74537      .   S
    N0     O18       4.39398  1_556   S
    Zr17   O19       2.18928      .   S
    N0     O19       5.60578      .   S
    Zr17   O20       1.88256      .   S
    N1     O20       4.72013  1_565   S
    Zr17   O21       1.85331      .   S
    N1     O21       4.68673      .   S
