# CIF file generated by openbabel 2.4.90, see http://openbabel.sf.net
data_I
_chemical_name_common ''
_cell_length_a 14.056
_cell_length_b 17.915
_cell_length_c 17.917
_cell_angle_alpha 100.312
_cell_angle_beta 91.959
_cell_angle_gamma 91.889
_space_group_name_H-M_alt 'P 1'
_space_group_name_Hall 'P 1'
loop_
    _symmetry_equiv_pos_as_xyz
    x,y,z
loop_
    _atom_site_label
    _atom_site_type_symbol
    _atom_site_fract_x
    _atom_site_fract_y
    _atom_site_fract_z
    _atom_site_occupancy
    Zn0     Zn   0.89933   0.08141   0.90968   1.000
    Zn1     Zn   0.41677   0.29387   0.45975   1.000
    Zn2     Zn   0.21326   0.28365   0.45036   1.000
    Zn3     Zn   0.58320   0.54029   0.70619   1.000
    Zn4     Zn   0.78672   0.54963   0.71670   1.000
    Zn5     Zn   0.10066   0.09029   0.91865   1.000
    C6      C    0.99663   0.23397   0.92188   1.000
    C7      C    0.99144   0.93762   0.90444   1.000
    C8      C    0.00334   0.07819   0.76600   1.000
    O9      O    0.39491   0.30341   0.57582   1.000
    O10     O    0.23332   0.29163   0.56872   1.000
    O11     O    0.40329   0.17722   0.45062   1.000
    O12     O    0.24164   0.16946   0.44040   1.000
    O13     O    0.39826   0.40963   0.47454   1.000
    C14     C    0.00862   0.09551   0.06240   1.000
    C15     C    0.31145   0.27890   0.30684   1.000
    C16     C    0.31382   0.29822   0.60486   1.000
    C17     C    0.32312   0.14071   0.44493   1.000
    C18     C    0.31641   0.43791   0.46975   1.000
    C19     C    0.68849   0.69317   0.72129   1.000
    C20     C    0.68617   0.39518   0.70183   1.000
    C21     C    0.67688   0.55501   0.85950   1.000
    C22     C    0.68347   0.53040   0.56220   1.000
    O23     O    0.07043   0.97426   0.90299   1.000
    O24     O    0.90911   0.96577   0.90613   1.000
    O25     O    0.91651   0.19747   0.90930   1.000
    O26     O    0.07599   0.20535   0.93523   1.000
    O27     O    0.92959   0.09700   0.02573   1.000
    O28     O    0.09093   0.09381   0.03429   1.000
    O29     O    0.08347   0.09072   0.80256   1.000
    O30     O    0.92399   0.06490   0.79457   1.000
    O31     O    0.39106   0.28456   0.34422   1.000
    O32     O    0.22944   0.27519   0.33458   1.000
    O33     O    0.23688   0.40054   0.46256   1.000
    O34     O    0.60891   0.65580   0.71558   1.000
    O35     O    0.77053   0.66539   0.72498   1.000
    O36     O    0.60506   0.42428   0.69660   1.000
    O37     O    0.76665   0.43129   0.70862   1.000
    O38     O    0.59673   0.54936   0.82293   1.000
    O39     O    0.75837   0.55958   0.83080   1.000
    O40     O    0.60161   0.52558   0.59045   1.000
    O41     O    0.76299   0.53746   0.59971   1.000
loop_
    _geom_bond_atom_site_label_1
    _geom_bond_atom_site_label_2
    _geom_bond_distance
    _geom_bond_site_symmetry_2
    _ccdc_geom_bond_type
    O27    C14       1.27462  1_655   S
    O27    Zn0       2.07510  1_554   S
    O28    C14       1.27657      .   S
    O28    Zn5       2.07093  1_554   S
    C15    O32       1.27518      .   S
    C15    O31       1.27592      .   S
    O32    Zn2       2.07363      .   S
    O31    Zn1       2.06503      .   S
    O12    C17       1.27717      .   S
    O12    Zn2       2.07454      .   S
    C17    O11       1.27579      .   S
    Zn2    O33       2.08062      .   S
    Zn2    O10       2.10831      .   S
    O11    Zn1       2.06880      .   S
    Zn1    O13       2.06920      .   S
    Zn1    O9        2.09007      .   S
    O33    C18       1.27450      .   S
    C18    O13       1.27858      .   S
    C22    O40       1.27929      .   S
    C22    O41       1.27506      .   S
    O10    C16       1.27562      .   S
    O9     C16       1.27656      .   S
    O40    Zn3       2.06934      .   S
    O41    Zn4       2.08239      .   S
    O36    C20       1.27657      .   S
    O36    Zn3       2.08837      .   S
    C20    O37       1.27566      .   S
    Zn3    O34       2.06478      .   S
    Zn3    O38       2.07039      .   S
    O37    Zn4       2.10785      .   S
    O34    C19       1.27595      .   S
    Zn4    O35       2.07314      .   S
    Zn4    O39       2.07361      .   S
    C19    O35       1.27522      .   S
    C8     O30       1.27592  1_455   S
    C8     O29       1.27602      .   S
    O30    Zn0       2.07327      .   S
    O29    Zn5       2.08716      .   S
    O38    C21       1.27563      .   S
    O39    C21       1.27752      .   S
    O23    C7        1.27460  1_455   S
    O23    Zn5       2.07482  1_565   S
    C7     O24       1.27658      .   S
    O24    Zn0       2.07047  1_565   S
    O25    Zn0       2.08651      .   S
    O25    C6        1.27600      .   S
    Zn5    O26       2.07177      .   S
    C6     O26       1.27588  1_655   S
    Zn5    Zn0       2.82657  1_455   S
    Zn1    Zn2       2.85759      .   S
    Zn3    Zn4       2.85783      .   S
